2024-12-19T02:05:06,376  INFO Gbl:64 JVM: 17.0.13; Red Hat, Inc.; mixed mode, sharing; 64-bit
2024-12-19T02:05:06,377  INFO Gbl:68 OS: Linux; 5.15.0-301.163.5.2.el8uek.x86_64; amd64
2024-12-19T02:05:06,377  INFO Gbl:71 CPU cores: 8
2024-12-19T02:05:06,379  INFO Gbl:72 max. Memory: 16008.0MB (16785604608B)
2024-12-19T02:05:06,380  INFO Gbl:114 MATSim-Build: ree04702ba7fc026b6bdf5a6ea52a749cf0c790e1 (2024-04-13 15:48:32)
2024-12-19T02:05:06,380  INFO Gbl:76 Command: org.matsim.project.RunMatsim
2024-12-19T02:05:06,383  INFO MemoryObserver:42 used RAM: 779 MB  free: 1460 MB  total: 2240 MB
2024-12-19T02:05:06,383  INFO ControlerListenerManagerImpl:112 calling notifyStartup on org.matsim.core.controler.ControlerDefaultsModule$1 with priority 0.0
2024-12-19T02:05:06,425  INFO ControlerListenerManagerImpl:112 calling notifyStartup on org.matsim.guice.DependencyGraphControlerListener with priority 0.0
2024-12-19T02:05:06,520  INFO ControlerListenerManagerImpl:112 calling notifyStartup on org.matsim.counts.CountsControlerListener with priority 0.0
2024-12-19T02:05:06,521  INFO ControlerListenerManagerImpl:112 calling notifyStartup on org.matsim.analysis.ModeStatsControlerListener with priority 0.0
2024-12-19T02:05:06,521  INFO ControlerListenerManagerImpl:112 calling notifyStartup on org.matsim.analysis.ScoreStatsControlerListener with priority 0.0
2024-12-19T02:05:06,521  INFO ControlerListenerManagerImpl:115 all ControlerStartupListeners called.
2024-12-19T02:05:06,522  INFO ControlerUtils:79 config dump before iterations start
2024-12-19T02:05:06,536  INFO ControlerUtils:83 

<?xml version="1.0" encoding="UTF-8"?>
<!DOCTYPE config SYSTEM "http://www.matsim.org/files/dtd/config_v2.dtd">
<config>
	<module name="changeMode" >
		<!-- Defines whether car availability is considered be considered or not. An agent has no car only if it has no license, or never access to a car. Default: true -->
		<param name="ignoreCarAvailability" value="true" />
		<!-- Defines the mode switch behavior. Possible values [fromAllModesToSpecifiedModes, fromSpecifiedModesToSpecifiedModes] Default: fromSpecifiedModesToSpecifiedModes. -->
		<param name="modeSwitchBehavior" value="fromSpecifiedModesToSpecifiedModes" />
		<!-- Defines all the modes available, including chain-based modes, seperated by commas -->
		<param name="modes" value="car,pt" />
	</module>
	<module name="controller" >
		<!-- Defines what should be done with the ITERS directory when a simulation finished successfully -->
		<param name="cleanItersAtEnd" value="keep" />
		<!-- Compression algorithm to use when writing out data to files. Possible values: [none, gzip, lz4, zst] -->
		<param name="compressionType" value="gzip" />
		<!-- Sets the interval in which graphs are generated. Default is 1. If set to 0, no graphs are generated. The generation of graphs usually takes a small amount of time that does not have any weight in big simulations, but add a significant overhead in smaller runs or in test cases where the graphical output is not even requested. -->
		<param name="createGraphsInterval" value="1" />
		<!-- Defines when the scoring functions for the population are created. Default=IterationStarts. Possible values: [IterationStarts, BeforeMobsim] -->
		<param name="createScoringFunctionType" value="IterationStarts" />
		<!-- true if at the end of a run, plans, network, config etc should be dumped to a file -->
		<param name="dumpDataAtEnd" value="true" />
		<!-- Default=false. If enabled, the router takes travel times needed for turning moves into account. Can only be used with Dijkstra routing. Cannot be used when TravelTimeCalculator.separateModes is enabled. -->
		<param name="enableLinkToLinkRouting" value="false" />
		<!-- Default=xml; Specifies the file format for writing events. Currently supported: [xml, pb, json]
		Multiple values can be specified separated by commas (','). -->
		<param name="eventsFileFormat" value="xml" />
		<!-- Default=0. First Iteration of a simulation. -->
		<param name="firstIteration" value="0" />
		<!-- Default=1000. Last Iteration of a simulation. -->
		<param name="lastIteration" value="1" />
		<!-- Defines the interval for printing memory usage to the log in [seconds]. Must be positive. Defaults to 60. -->
		<param name="memoryObserverInterval" value="60" />
		<!-- Defines which mobility simulation will be used. Currently supported: [qsim, JDEQSim, hermes]
		Depending on the chosen mobsim, you'll have to add additional config modules to configure the corresponding mobsim.
		For 'qsim', add a module 'qsim' to the config. -->
		<param name="mobsim" value="qsim" />
		<param name="outputDirectory" value="scenarios/equil/output/run_20241219_020457" />
		<!-- Possible values: failIfDirectoryExists,overwriteExistingFiles,deleteDirectoryIfExists -->
		<param name="overwriteFiles" value="deleteDirectoryIfExists" />
		<!-- The type of routing (least cost path) algorithm used, may have the values: [Dijkstra, AStarLandmarks, SpeedyALT] -->
		<param name="routingAlgorithmType" value="Dijkstra" />
		<!-- An identifier for the current run which is used as prefix for output files and mentioned in output xml files etc. -->
		<param name="runId" value="null" />
		<!-- Comma-separated list of visualizer output file formats. `transims' and `otfvis'. -->
		<param name="snapshotFormat" value="" />
		<!-- iterationNumber % writeEventsInterval == 0 defines in which iterations events are written to a file. `0' disables events writing completely. -->
		<param name="writeEventsInterval" value="50" />
		<!-- iterationNumber % writePlansInterval == 0 defines (hopefully) in which iterations plans are written to a file. `0' disables plans writing completely.  Some plans in early iterations are always written -->
		<param name="writePlansInterval" value="50" />
		<!-- iterationNumber % writeSnapshotsInterval == 0 defines in which iterations snapshots are written to a file. `0' disables snapshots writing completely -->
		<param name="writeSnapshotsInterval" value="1" />
		<!-- iterationNumber % writeEventsInterval == 0 defines in which iterations trips CSV are written to a file. `0' disables trips writing completely. -->
		<param name="writeTripsInterval" value="50" />
	</module>
	<module name="counts" >
		<!-- Transport modes that will be respected for the counts comparison. 'car' is default, which includes also bussed from the pt simulation module. Use this parameter in combination with 'filterModes' = true! -->
		<param name="analyzedModes" value="car" />
		<!-- Specifies over how many iterations the link volumes should be averaged that are used for the counts comparison. Use 1 or 0 to only use the link volumes of a single iteration. This values cannot be larger than the value specified for writeCountsInterval -->
		<param name="averageCountsOverIterations" value="5" />
		<!-- factor by which to re-scale the simulated values.  necessary when simulation runs with something different from 100%.  needs to be adapted manually -->
		<param name="countsScaleFactor" value="1.0" />
		<!-- distance to distanceFilterCenterNode to include counting stations. The unit of distance is the Euclidean distance implied by the coordinate system -->
		<param name="distanceFilter" value="null" />
		<!-- node id for center node of distance filter -->
		<param name="distanceFilterCenterNode" value="null" />
		<!-- If true, link counts from legs performed on modes not included in the 'analyzedModes' parameter are ignored. -->
		<param name="filterModes" value="false" />
		<!-- The Coordinates Reference System in which the coordinates are expressed in the input file. At import, the coordinates will be converted to the coordinate system defined in "global", and willbe converted back at export. If not specified, no conversion happens. -->
		<param name="inputCRS" value="null" />
		<!-- input file name to counts package -->
		<param name="inputCountsFile" value="null" />
		<!-- possible values: `html', `txt', `all' -->
		<param name="outputformat" value="txt" />
		<!-- Specifies how often the counts comparison should be calculated and written. -->
		<param name="writeCountsInterval" value="10" />
	</module>
	<module name="eventsManager" >
		<!-- Estimated number of events during mobsim run. An optional optimization hint for the framework. -->
		<param name="estimatedNumberOfEvents" value="null" />
		<!-- Size of the events Queue. Increase for very large scenarios -->
		<param name="eventsQueueSize" value="131072" />
		<!-- Number of threads for parallel events handler. _null_ means the framework decides by itself. 0 is currently not possible. -->
		<param name="numberOfThreads" value="null" />
		<!-- If enabled, each event handler is assigned to its own thread. Note that enabling this feature disabled the numberOfThreads option! This feature is still experimental! -->
		<param name="oneThreadPerHandler" value="false" />
		<!-- If enabled, it is ensured that all events that are created during a time step of the mobility simulation are processed before the next time step is simulated. E.g. neccessary when within-day replanning is used. -->
		<param name="synchronizeOnSimSteps" value="true" />
	</module>
	<module name="facilities" >
		<!-- This defines how facilities should be created. Possible values: none fromFile setInScenario onePerActivityLinkInPlansFile onePerActivityLinkInPlansFileExceptWhenCoordinatesAreGiven onePerActivityLocationInPlansFile  -->
		<param name="facilitiesSource" value="none" />
		<!-- A prefix to be used for auto-generated IDs. -->
		<param name="idPrefix" value="f_auto_" />
		<!-- The Coordinates Reference System in which the coordinates are expressed in the input file. At import, the coordinates will be converted to the coordinate system defined in "global", and willbe converted back at export. If not specified, no conversion happens. -->
		<param name="inputCRS" value="null" />
		<param name="inputFacilitiesFile" value="null" />
		<param name="inputFacilityAttributesFile" value="null" />
		<param name="insistingOnUsingDeprecatedFacilitiesAttributeFile" value="false" />
	</module>
	<module name="global" >
		<param name="coordinateSystem" value="EPSG:32610" />
		<param name="defaultDelimiter" value=";" />
		<param name="insistingOnDeprecatedConfigVersion" value="true" />
		<!-- "global" number of threads.  This number is used, e.g., for replanning, but NOT in QSim.  This can typically be set to as many cores as you have available, or possibly even slightly more. -->
		<param name="numberOfThreads" value="2" />
		<param name="randomSeed" value="4711" />
	</module>
	<module name="hermes" >
		<!-- Simulation End Time -->
		<param name="endTime" value="30:00:00" />
		<param name="flowCapacityFactor" value="1.0" />
		<param name="mainMode" value="car" />
		<param name="storageCapacityFactor" value="1.0" />
		<!-- time in seconds.  Time after which the frontmost vehicle on a link is called `stuck' if it does not move. Set to Integer.MAX_VALUE to disable this behavior -->
		<param name="stuckTime" value="10" />
		<!-- treats PT as deterministic. PT vehicles will run with a steady speed. Should be used with separate network layers for PT and other network modes. -->
		<param name="useDeterministicPt" value="false" />
	</module>
	<module name="households" >
		<param name="inputFile" value="null" />
		<param name="inputHouseholdAttributesFile" value="null" />
		<param name="insistingOnUsingDeprecatedHouseholdsAttributeFile" value="false" />
	</module>
	<module name="jdeqsim" >
		<param name="carSize" value="7.5" />
		<param name="endTime" value="undefined" />
		<param name="flowCapacityFactor" value="1.0" />
		<param name="gapTravelSpeed" value="15.0" />
		<param name="minimumInFlowCapacity" value="1800.0" />
		<param name="squeezeTime" value="1800.0" />
		<param name="storageCapacityFactor" value="1.0" />
	</module>
	<module name="linkStats" >
		<!-- Specifies over how many iterations the link volumes should be averaged that are used for the link statistics. Use 1 or 0 to only use the link volumes of a single iteration. This values cannot be larger than the value specified for writeLinkStatsInterval -->
		<param name="averageLinkStatsOverIterations" value="5" />
		<!-- Specifies how often the link stats should be calculated and written. Use 0 to disable the generation of link stats. -->
		<param name="writeLinkStatsInterval" value="50" />
	</module>
	<module name="network" >
		<!-- The Coordinates Reference System in which the coordinates are expressed in the input file. At import, the coordinates will be converted to the coordinate system defined in "global", and willbe converted back at export. If not specified, no conversion happens. -->
		<param name="inputCRS" value="null" />
		<param name="inputChangeEventsFile" value="null" />
		<param name="inputNetworkFile" value="output/sf_network.xml.gz" />
		<param name="laneDefinitionsFile" value="null" />
		<param name="timeVariantNetwork" value="false" />
	</module>
	<module name="planInheritance" >
		<!-- Specifies whether or not PlanInheritance Information should be tracked. -->
		<param name="enabled" value="false" />
	</module>
	<module name="plans" >
		<!-- String: minOfDurationAndEndTime tryEndTimeThenDuration endTimeOnly. Anything besides minOfDurationAndEndTime will internally use a different (simpler) version of the TimeAllocationMutator. -->
		<param name="activityDurationInterpretation" value="tryEndTimeThenDuration" />
		<!-- Possible values: reject,useMainModeIdentifier -->
		<param name="handlingOfPlansWithoutRoutingMode" value="reject" />
		<!-- The Coordinates Reference System in which the coordinates are expressed in the input file. At import, the coordinates will be converted to the coordinate system defined in "global", and willbe converted back at export. If not specified, no conversion happens. -->
		<param name="inputCRS" value="null" />
		<param name="inputPersonAttributesFile" value="null" />
		<param name="inputPlansFile" value="output/synthetic_population.xml" />
		<param name="insistingOnUsingDeprecatedPersonAttributeFile" value="false" />
		<!-- Defines how routes are stored in memory. Currently supported: LinkNetworkRoute, MediumCompressedNetworkRoute, HeavyCompressedNetworkRoute. -->
		<param name="networkRouteType" value="LinkNetworkRoute" />
		<!-- (not tested) will remove plan attributes that are presumably not used, such as activityStartTime. default=false. Use with Caution! -->
		<param name="removingUnnecessaryPlanAttributes" value="false" />
		<!-- Defines how departure times are interpreted in rerouting applications. If set to 'ignoreDelays', the departure time of a trip when routing along a plan will always be the nominal (plan-based) activity end time. If set to 'shiftActivityEndTimes', routing along a plan will accumulate travel times and shift activity end times if necessary -->
		<param name="tripDurationHandling" value="ignoreDelays" />
	</module>
	<module name="qsim" >
		<param name="endTime" value="30:00:00" />
		<!-- If set to withLinkAttributes snapshots will only be generated for links which include generateSnapshotForLink as attribute key. Default is no filtering. -->
		<param name="filterSnapshots" value="no" />
		<param name="flowCapacityFactor" value="1.0" />
		<!-- decides if waiting vehicles enter the network after or before the already driving vehicles were moved. Default: false -->
		<param name="insertingWaitingVehiclesBeforeDrivingVehicles" value="true" />
		<!-- If link dynamics is set as SeepageQ, set to false if all seep modes should perform seepage. Default is true (better option). -->
		<param name="isRestrictingSeepage" value="true" />
		<!-- If link dynamics is set as SeepageQ, set to true if seep mode do not consumes any space on the link. Default is false. -->
		<param name="isSeepModeStorageFree" value="false" />
		<!-- default: FIFO; options: FIFO PassingQ SeepageQ -->
		<param name="linkDynamics" value="FIFO" />
		<!-- The (initial) width of the links of the network. Use positive floating point values. This is used only for visualisation. -->
		<param name="linkWidth" value="30.0" />
		<!-- [comma-separated list] Defines which modes are congested modes. Technically, these are the modes that the departure handler of the netsimengine handles.  Effective cell size, effective lane width, flow capacity factor, and storage capacity factor need to be set with diligence.  Need to be vehicular modes to make sense. -->
		<param name="mainMode" value="car" />
		<!-- Shortens a link in the visualization, i.e. its start and end point are moved into towards the center. Does not affect traffic flow.  -->
		<param name="nodeOffset" value="0.0" />
		<!-- Number of threads used for the QSim.  Note that this setting is independent from the "global" threads setting.  In contrast to earlier versions, the non-parallel special version is no longer there. -->
		<param name="numberOfThreads" value="1" />
		<!-- Boolean. `true': stuck vehicles are removed, aborting the plan; `false': stuck vehicles are forced into the next link. `false' is probably the better choice. -->
		<param name="removeStuckVehicles" value="false" />
		<!-- If link dynamics is set as SeepageQ, set a seep mode. Default is bike. -->
		<param name="seepMode" value="bike" />
		<!-- Possible values: minOfEndtimeAndMobsimFinished,onlyUseEndtime -->
		<param name="simEndtimeInterpretation" value="null" />
		<!-- Options: maxOfStarttimeAndEarliestActivityEnd onlyUseStarttime  -->
		<param name="simStarttimeInterpretation" value="maxOfStarttimeAndEarliestActivityEnd" />
		<!-- snapshotStyle. One of: equiDist queue withHoles withHolesAndShowHoles kinematicWaves  -->
		<param name="snapshotStyle" value="queue" />
		<param name="snapshotperiod" value="00:30:00" />
		<param name="startTime" value="00:00:00" />
		<param name="storageCapacityFactor" value="1.0" />
		<!-- time in seconds.  Time after which the frontmost vehicle on a link is called `stuck' if it does not move. -->
		<param name="stuckTime" value="10.0" />
		<param name="timeStepSize" value="00:00:01" />
		<!-- options: queue withHoles kinematicWaves  -->
		<param name="trafficDynamics" value="queue" />
		<!-- Set this parameter to true if lanes should be used, false if not. -->
		<param name="useLanes" value="true" />
		<!-- If a route does not reference a vehicle, agents will use the vehicle with the same id as their own. -->
		<param name="usePersonIdForMissingVehicleId" value="false" />
		<!-- If false, the qsim accumulates fractional flows up to one flow unit in every time step.  If true, flows are updated only if an agent wants to enter the link or an agent is added to buffer. Default is true. -->
		<param name="usingFastCapacityUpdate" value="true" />
		<!-- Defines what happens if an agent wants to depart, but the specified vehicle is not available. One of: teleport wait exception  -->
		<param name="vehicleBehavior" value="teleport" />
		<!-- If vehicles should all be the same default vehicle, or come from the vehicles file, or something else.  Possible values:  defaultVehicle modeVehicleTypesFromVehiclesData fromVehiclesData -->
		<param name="vehiclesSource" value="defaultVehicle" />
	</module>
	<module name="replanning" >
		<!-- the external executable will be called with a config file as argument.  This is the pathname to a possible skeleton config, to which additional information will be added.  Can be null. -->
		<param name="ExternalExeConfigTemplate" value="null" />
		<!-- time out value (in seconds) after which matsim will consider the external strategy as failed -->
		<param name="ExternalExeTimeOut" value="3600" />
		<!-- root directory for temporary files generated by the external executable. Provided as a service; I don't think this is used by MATSim. -->
		<param name="ExternalExeTmpFileRootDir" value="null" />
		<!-- fraction of iterations where innovative strategies are switched off.  Something like 0.8 should be good.  E.g. if you run from iteration 400 to iteration 500, innovation is switched off at iteration 480 -->
		<param name="fractionOfIterationsToDisableInnovation" value="Infinity" />
		<!-- maximum number of plans per agent.  ``0'' means ``infinity''.  Currently (2010), ``5'' is a good number -->
		<param name="maxAgentPlanMemorySize" value="5" />
		<!-- strategyName of PlanSelector for plans removal.  Possible defaults: WorstPlanSelector SelectRandom SelectExpBetaForRemoval ChangeExpBetaForRemoval PathSizeLogitSelectorForRemoval . The current default, WorstPlanSelector is not a good choice from a discrete choice theoretical perspective. Alternatives, however, have not been systematically tested. kai, feb'12 -->
		<param name="planSelectorForRemoval" value="WorstPlanForRemovalSelectorWithConflicts" />
		<parameterset type="strategysettings" >
			<!-- iteration after which strategy will be disabled.  most useful for ``innovative'' strategies (new routes, new times, ...). Normally, better use fractionOfIterationsToDisableInnovation -->
			<param name="disableAfterIteration" value="-1" />
			<!-- path to external executable (if applicable) -->
			<param name="executionPath" value="null" />
			<!-- strategyName of strategy.  Possible default names: SelectRandom BestScore KeepLastSelected ChangeExpBeta SelectExpBeta SelectPathSizeLogit      (selectors), ReRouteTimeAllocationMutatorTimeAllocationMutator_ReRouteChangeSingleTripModeChangeTripModeSubtourModeChoice (innovative strategies). -->
			<param name="strategyName" value="BestScore" />
			<!-- subpopulation to which the strategy applies. "null" refers to the default population, that is, the set of persons for which no explicit subpopulation is defined (ie no subpopulation attribute) -->
			<param name="subpopulation" value="null" />
			<!-- weight of a strategy: for each agent, a strategy will be selected with a probability proportional to its weight -->
			<param name="weight" value="0.9" />
		</parameterset>
		<parameterset type="strategysettings" >
			<param name="disableAfterIteration" value="-1" />
			<param name="executionPath" value="null" />
			<param name="strategyName" value="ReRoute" />
			<param name="subpopulation" value="null" />
			<param name="weight" value="0.1" />
		</parameterset>
		<parameterset type="strategysettings" >
			<param name="disableAfterIteration" value="-1" />
			<param name="executionPath" value="null" />
			<param name="strategyName" value="TimeAllocationMutator" />
			<param name="subpopulation" value="null" />
			<param name="weight" value="0.1" />
		</parameterset>
	</module>
	<module name="replanningAnnealer" >
		<!-- Activate the scaling of replanning modules using an annealing approach rather than fixed rates. -->
		<param name="activateAnnealingModule" value="false" />
	</module>
	<module name="routing" >
		<!-- Defines how access and egress to main mode is simulated. Either of [none, accessEgressModeToLink, walkConstantTimeToLink, accessEgressModeToLinkPlusTimeConstant], Current default=none which means no access or egress trips are simulated. -->
		<param name="accessEgressType" value="none" />
		<!-- Some typical teleportation routing params are set by default, such as for walk and bike.  Setting this switch to "true" will clear them.  Note that this will also clear settings for helper modes such as for non_network_walk -->
		<param name="clearDefaultTeleportedModeParams" value="false" />
		<!-- All the modes for which the router is supposed to generate network routes (like car) -->
		<param name="networkModes" value="car" />
		<!-- strength of the randomness for the utility of money in routing under toll.  Leads to Pareto-optimal route with randomly drawn money-vs-other-attributes tradeoff. Technically the width parameter of a log-normal distribution. 3.0 seems to be a good value.  -->
		<param name="routingRandomness" value="3.0" />
		<parameterset type="teleportedModeParameters" >
			<param name="beelineDistanceFactor" value="1.3" />
			<param name="mode" value="bike" />
			<!-- Free-speed factor for a teleported mode. Travel time = teleportedModeFreespeedFactor * <freespeed car travel time>. Insert a line like this for every such mode. Please do not set teleportedModeFreespeedFactor as well as teleportedModeSpeed for the same mode, but if you do, +teleportedModeFreespeedFactor wins over teleportedModeSpeed. -->
			<param name="teleportedModeFreespeedFactor" value="null" />
			<!-- Speed for a teleported mode. Travel time = (<beeline distance> * beelineDistanceFactor) / teleportedModeSpeed. Insert a line like this for every such mode. -->
			<param name="teleportedModeSpeed" value="4.166666666666667" />
		</parameterset>
		<parameterset type="teleportedModeParameters" >
			<param name="beelineDistanceFactor" value="1.3" />
			<param name="mode" value="walk" />
			<param name="teleportedModeFreespeedFactor" value="null" />
			<param name="teleportedModeSpeed" value="0.8333333333333333" />
		</parameterset>
		<parameterset type="teleportedModeParameters" >
			<param name="beelineDistanceFactor" value="1.3" />
			<param name="mode" value="non_network_walk" />
			<param name="teleportedModeFreespeedFactor" value="null" />
			<param name="teleportedModeSpeed" value="0.8333333333333333" />
		</parameterset>
		<parameterset type="teleportedModeParameters" >
			<param name="beelineDistanceFactor" value="1.3" />
			<param name="mode" value="ride" />
			<param name="teleportedModeFreespeedFactor" value="1.0" />
			<param name="teleportedModeSpeed" value="null" />
		</parameterset>
		<parameterset type="teleportedModeParameters" >
			<param name="beelineDistanceFactor" value="1.3" />
			<param name="mode" value="pt" />
			<param name="teleportedModeFreespeedFactor" value="2.0" />
			<param name="teleportedModeSpeed" value="null" />
		</parameterset>
	</module>
	<module name="scoring" >
		<!-- logit model scale parameter. default: 1.  Has name and default value for historical reasons (see Bryan Raney's phd thesis). -->
		<param name="brainExpBeta" value="2.0" />
		<!-- fraction of iterations at which MSA score averaging is started. The matsim theory department suggests to use this together with switching off choice set innovation (where a similar switch exists), but it has not been tested yet. -->
		<param name="fractionOfIterationsToStartScoreMSA" value="null" />
		<!-- new_score = (1-learningRate)*old_score + learningRate * score_from_mobsim.  learning rates close to zero emulate score averaging, but slow down initial convergence -->
		<param name="learningRate" value="1.0" />
		<param name="pathSizeLogitBeta" value="1.0" />
		<!-- There used to be a plateau between duration=0 and duration=zeroUtilityDuration. This caused durations to evolve to zero once they were below zeroUtilityDuration, causing problems.  Only use this switch if you need to be backwards compatible with some old results.  (changed nov'13) -->
		<param name="usingOldScoringBelowZeroUtilityDuration" value="false" />
		<!-- write a plans file in each iteration directory which contains what each agent actually did, and the score it received. -->
		<param name="writeExperiencedPlans" value="false" />
		<parameterset type="scoringParameters" >
			<param name="earlyDeparture" value="-0.0" />
			<param name="lateArrival" value="-18.0" />
			<param name="marginalUtilityOfMoney" value="0.01" />
			<param name="performing" value="6.0" />
			<param name="subpopulation" value="null" />
			<param name="utilityOfLineSwitch" value="-1.0" />
			<param name="waiting" value="-0.0" />
			<param name="waitingPt" value="-4.0" />
			<parameterset type="activityParams" >
				<param name="activityType" value="dummy" />
				<param name="closingTime" value="undefined" />
				<param name="earliestEndTime" value="undefined" />
				<param name="latestStartTime" value="undefined" />
				<param name="minimalDuration" value="undefined" />
				<param name="openingTime" value="undefined" />
				<param name="priority" value="1.0" />
				<param name="scoringThisActivityAtAll" value="true" />
				<!-- typical duration of activity.  needs to be defined and non-zero.  in sec. -->
				<param name="typicalDuration" value="02:00:00" />
				<!-- method to compute score at typical duration.  Options: | uniform | relative | Use uniform for backwards compatibility (all activities same score; higher proba to drop long acts). -->
				<param name="typicalDurationScoreComputation" value="relative" />
			</parameterset>
			<parameterset type="activityParams" >
				<param name="activityType" value="car interaction" />
				<param name="closingTime" value="undefined" />
				<param name="earliestEndTime" value="undefined" />
				<param name="latestStartTime" value="undefined" />
				<param name="minimalDuration" value="undefined" />
				<param name="openingTime" value="undefined" />
				<param name="priority" value="1.0" />
				<param name="scoringThisActivityAtAll" value="false" />
				<param name="typicalDuration" value="undefined" />
				<param name="typicalDurationScoreComputation" value="relative" />
			</parameterset>
			<parameterset type="activityParams" >
				<param name="activityType" value="pt interaction" />
				<param name="closingTime" value="undefined" />
				<param name="earliestEndTime" value="undefined" />
				<param name="latestStartTime" value="undefined" />
				<param name="minimalDuration" value="undefined" />
				<param name="openingTime" value="undefined" />
				<param name="priority" value="1.0" />
				<param name="scoringThisActivityAtAll" value="false" />
				<param name="typicalDuration" value="undefined" />
				<param name="typicalDurationScoreComputation" value="relative" />
			</parameterset>
			<parameterset type="activityParams" >
				<param name="activityType" value="bike interaction" />
				<param name="closingTime" value="undefined" />
				<param name="earliestEndTime" value="undefined" />
				<param name="latestStartTime" value="undefined" />
				<param name="minimalDuration" value="undefined" />
				<param name="openingTime" value="undefined" />
				<param name="priority" value="1.0" />
				<param name="scoringThisActivityAtAll" value="false" />
				<param name="typicalDuration" value="undefined" />
				<param name="typicalDurationScoreComputation" value="relative" />
			</parameterset>
			<parameterset type="activityParams" >
				<param name="activityType" value="drt interaction" />
				<param name="closingTime" value="undefined" />
				<param name="earliestEndTime" value="undefined" />
				<param name="latestStartTime" value="undefined" />
				<param name="minimalDuration" value="undefined" />
				<param name="openingTime" value="undefined" />
				<param name="priority" value="1.0" />
				<param name="scoringThisActivityAtAll" value="false" />
				<param name="typicalDuration" value="undefined" />
				<param name="typicalDurationScoreComputation" value="relative" />
			</parameterset>
			<parameterset type="activityParams" >
				<param name="activityType" value="taxi interaction" />
				<param name="closingTime" value="undefined" />
				<param name="earliestEndTime" value="undefined" />
				<param name="latestStartTime" value="undefined" />
				<param name="minimalDuration" value="undefined" />
				<param name="openingTime" value="undefined" />
				<param name="priority" value="1.0" />
				<param name="scoringThisActivityAtAll" value="false" />
				<param name="typicalDuration" value="undefined" />
				<param name="typicalDurationScoreComputation" value="relative" />
			</parameterset>
			<parameterset type="activityParams" >
				<param name="activityType" value="other interaction" />
				<param name="closingTime" value="undefined" />
				<param name="earliestEndTime" value="undefined" />
				<param name="latestStartTime" value="undefined" />
				<param name="minimalDuration" value="undefined" />
				<param name="openingTime" value="undefined" />
				<param name="priority" value="1.0" />
				<param name="scoringThisActivityAtAll" value="false" />
				<param name="typicalDuration" value="undefined" />
				<param name="typicalDurationScoreComputation" value="relative" />
			</parameterset>
			<parameterset type="activityParams" >
				<param name="activityType" value="walk interaction" />
				<param name="closingTime" value="undefined" />
				<param name="earliestEndTime" value="undefined" />
				<param name="latestStartTime" value="undefined" />
				<param name="minimalDuration" value="undefined" />
				<param name="openingTime" value="undefined" />
				<param name="priority" value="1.0" />
				<param name="scoringThisActivityAtAll" value="false" />
				<param name="typicalDuration" value="undefined" />
				<param name="typicalDurationScoreComputation" value="relative" />
			</parameterset>
			<parameterset type="activityParams" >
				<param name="activityType" value="home" />
				<param name="closingTime" value="undefined" />
				<param name="earliestEndTime" value="undefined" />
				<param name="latestStartTime" value="undefined" />
				<param name="minimalDuration" value="08:00:00" />
				<param name="openingTime" value="undefined" />
				<param name="priority" value="1.0" />
				<param name="scoringThisActivityAtAll" value="true" />
				<param name="typicalDuration" value="12:00:00" />
				<param name="typicalDurationScoreComputation" value="relative" />
			</parameterset>
			<parameterset type="activityParams" >
				<param name="activityType" value="work" />
				<param name="closingTime" value="18:00:00" />
				<param name="earliestEndTime" value="undefined" />
				<param name="latestStartTime" value="09:00:00" />
				<param name="minimalDuration" value="06:00:00" />
				<param name="openingTime" value="07:00:00" />
				<param name="priority" value="1.0" />
				<param name="scoringThisActivityAtAll" value="true" />
				<param name="typicalDuration" value="08:00:00" />
				<param name="typicalDurationScoreComputation" value="relative" />
			</parameterset>
			<parameterset type="activityParams" >
				<param name="activityType" value="ride interaction" />
				<param name="closingTime" value="undefined" />
				<param name="earliestEndTime" value="undefined" />
				<param name="latestStartTime" value="undefined" />
				<param name="minimalDuration" value="undefined" />
				<param name="openingTime" value="undefined" />
				<param name="priority" value="1.0" />
				<param name="scoringThisActivityAtAll" value="false" />
				<param name="typicalDuration" value="undefined" />
				<param name="typicalDurationScoreComputation" value="relative" />
			</parameterset>
			<parameterset type="modeParams" >
				<!-- [utils] alternative-specific constant.  Normally per trip, but that is probably buggy for multi-leg trips. -->
				<param name="constant" value="0.0" />
				<!-- [unit_of_money/day] Fixed cost of mode, per day. -->
				<param name="dailyMonetaryConstant" value="1.0" />
				<!-- [utils] daily utility constant. default=0 to be backwards compatible -->
				<param name="dailyUtilityConstant" value="0.0" />
				<!-- [utils/m] utility of traveling (e.g. walking or driving) per m, normally negative.  this is on top of the time (dis)utility. -->
				<param name="marginalUtilityOfDistance_util_m" value="-0.02" />
				<!-- [utils/hr] additional marginal utility of traveling.  normally negative.  this comes on top of the opportunity cost of time -->
				<param name="marginalUtilityOfTraveling_util_hr" value="-6.0" />
				<param name="mode" value="car" />
				<!-- [unit_of_money/m] conversion of distance into money. Normally negative. -->
				<param name="monetaryDistanceRate" value="-1.0E-4" />
			</parameterset>
			<parameterset type="modeParams" >
				<param name="constant" value="0.0" />
				<param name="dailyMonetaryConstant" value="0.0" />
				<param name="dailyUtilityConstant" value="0.0" />
				<param name="marginalUtilityOfDistance_util_m" value="-0.05" />
				<param name="marginalUtilityOfTraveling_util_hr" value="-6.0" />
				<param name="mode" value="walk" />
				<param name="monetaryDistanceRate" value="-0.005" />
			</parameterset>
			<parameterset type="modeParams" >
				<param name="constant" value="0.0" />
				<param name="dailyMonetaryConstant" value="0.0" />
				<param name="dailyUtilityConstant" value="0.0" />
				<param name="marginalUtilityOfDistance_util_m" value="-0.025" />
				<param name="marginalUtilityOfTraveling_util_hr" value="-3.0" />
				<param name="mode" value="bike" />
				<param name="monetaryDistanceRate" value="0.0015" />
			</parameterset>
			<parameterset type="modeParams" >
				<param name="constant" value="0.0" />
				<param name="dailyMonetaryConstant" value="2.0" />
				<param name="dailyUtilityConstant" value="0.0" />
				<param name="marginalUtilityOfDistance_util_m" value="-0.0025" />
				<param name="marginalUtilityOfTraveling_util_hr" value="-6.0" />
				<param name="mode" value="ride" />
				<param name="monetaryDistanceRate" value="-1.0E-4" />
			</parameterset>
			<parameterset type="modeParams" >
				<param name="constant" value="0.0" />
				<param name="dailyMonetaryConstant" value="0.0" />
				<param name="dailyUtilityConstant" value="0.0" />
				<param name="marginalUtilityOfDistance_util_m" value="-0.0025" />
				<param name="marginalUtilityOfTraveling_util_hr" value="-4.0" />
				<param name="mode" value="pt" />
				<param name="monetaryDistanceRate" value="-1.0E-4" />
			</parameterset>
			<parameterset type="modeParams" >
				<param name="constant" value="0.0" />
				<param name="dailyMonetaryConstant" value="1.0" />
				<param name="dailyUtilityConstant" value="0.0" />
				<param name="marginalUtilityOfDistance_util_m" value="-0.02" />
				<param name="marginalUtilityOfTraveling_util_hr" value="-2.0" />
				<param name="mode" value="other" />
				<param name="monetaryDistanceRate" value="-1.0E-4" />
			</parameterset>
		</parameterset>
	</module>
	<module name="subtourModeChoice" >
		<!-- Only for backwards compatibility.  Defines if only trips from modes list should change mode, or all trips.  Options: fromAllModesToSpecifiedModes fromSpecifiedModesToSpecifiedModes betweenAllAndFewerConstraints  -->
		<param name="behavior" value="fromSpecifiedModesToSpecifiedModes" />
		<!-- Defines the chain-based modes, seperated by commas -->
		<param name="chainBasedModes" value="car,bike" />
		<!-- Defines whether car availability must be considered or not. A agent has no car only if it has no license, or never access to a car -->
		<param name="considerCarAvailability" value="false" />
		<!-- If greater than 0, subtours will also consider coordinates to be at the same location when smaller than set distance. -->
		<param name="coordDistance" value="0.0" />
		<!-- Defines all the modes available, including chain-based modes, seperated by commas -->
		<param name="modes" value="car,pt,bike,walk" />
		<!-- Defines the probability of changing a single trip for a unchained mode instead of subtour. -->
		<param name="probaForRandomSingleTripMode" value="0.0" />
	</module>
	<module name="timeAllocationMutator" >
		<!-- Latest Activity End Time. Default = 24:00:00 -->
		<param name="latestActivityEndTime" value="86400.0" />
		<!-- Mutates times only around the initially defined end times. -->
		<param name="mutateAroundInitialEndTimeOnly" value="false" />
		<!-- Default:true; Defines whether time mutation changes an activity's duration. -->
		<param name="mutationAffectsDuration" value="true" />
		<!-- Default:1800.0; Defines how many seconds a time mutation can maximally shift a time. -->
		<param name="mutationRange" value="1800.0" />
		<!-- Mutation Range Step, default = 1 second -->
		<param name="mutationRangeStep" value="1.0" />
	</module>
	<module name="transit" >
		<!-- The Coordinates Reference System in which the coordinates are expressed in the input file. At import, the coordinates will be converted to the coordinate system defined in "global", and willbe converted back at export. If not specified, no conversion happens. -->
		<param name="inputScheduleCRS" value="null" />
		<param name="insistingOnUsingDeprecatedAttributeFiles" value="false" />
		<!-- The type of transit routing algorithm used, may have the values: [DijkstraBased, SwissRailRaptor] -->
		<param name="routingAlgorithmType" value="SwissRailRaptor" />
		<!-- Optional input file containing additional attributes for transit lines, stored as ObjectAttributes. -->
		<param name="transitLinesAttributesFile" value="null" />
		<!-- Comma-separated list of transportation modes that are handled as transit. Defaults to 'pt'. -->
		<param name="transitModes" value="pt" />
		<!-- Input file containing the transit schedule to be simulated. -->
		<param name="transitScheduleFile" value="null" />
		<!-- Optional input file containing additional attributes for transit stop facilities, stored as ObjectAttributes. -->
		<param name="transitStopsAttributesFile" value="null" />
		<!-- Set this parameter to true if transit should be simulated, false if not. -->
		<param name="useTransit" value="false" />
		<param name="usingTransitInMobsim" value="true" />
		<!-- Input file containing the vehicles used by the departures in the transit schedule. -->
		<param name="vehiclesFile" value="null" />
	</module>
	<module name="transitRouter" >
		<!-- additional time the router allocates when a line switch happens. Can be interpreted as a 'safety' time that agents need to safely transfer from one line to another -->
		<param name="additionalTransferTime" value="0.0" />
		<!-- Factor with which direct walk generalized cost is multiplied before it is compared to the pt generalized cost.  Set to a very high value to reduce direct walk results. -->
		<param name="directWalkFactor" value="1.0" />
		<!-- step size to increase searchRadius if no stops are found -->
		<param name="extensionRadius" value="200.0" />
		<!-- maximum beeline distance between stops that agents could transfer to by walking -->
		<param name="maxBeelineWalkConnectionDistance" value="100.0" />
		<!-- the radius in which stop locations are searched, given a start or target coordinate -->
		<param name="searchRadius" value="1000.0" />
	</module>
	<module name="travelTimeCalculator" >
		<!-- (only for backwards compatibility; only used if separateModes==false && + filterModes==true)  Transport modes that will be respected by the travel time collector. 'car' is default which includes also buses from the pt simulation module. -->
		<param name="analyzedModes" value="car" />
		<param name="calculateLinkToLinkTravelTimes" value="false" />
		<param name="calculateLinkTravelTimes" value="true" />
		<!-- (only for backwards compatiblity; only used if separateModes==false)  Only modes included in analyzedModes are included. -->
		<param name="filterModes" value="false" />
		<!-- The lenght (in sec) of the time period that is splited into time bins; an additional time bin is created to aggregate all travel times collected after maxTime -->
		<param name="maxTime" value="108000" />
		<!-- (only for backwards compatibility) If false, link travel times are measured and aggregated over all vehicles using the link. -->
		<param name="separateModes" value="true" />
		<!-- How to deal with congested time bins that have no link entry events. `optimistic' assumes free speed (too optimistic); 'experimental_LastMile' is experimental and probably too pessimistic. -->
		<param name="travelTimeAggregator" value="optimistic" />
		<!-- The size of the time bin (in sec) into which the link travel times are aggregated for the router -->
		<param name="travelTimeBinSize" value="900.0" />
		<!-- How to deal with link entry times at different positions during the time bin. Currently supported: average, linearinterpolation -->
		<param name="travelTimeGetter" value="average" />
	</module>
	<module name="vehicles" >
		<param name="vehiclesFile" value="null" />
	</module>
	<module name="vspExperimental" >
		<!-- (do not use except of you have to) There was a problem with pt interaction scoring.  Some people solved it by overwriting the parameters of the pt interaction activity type.  Doing this now throws an Exception.  If you still insist on doing this, set the following to true. -->
		<param name="isAbleToOverwritePtInteractionParams" value="false" />
		<param name="isGeneratingBoardingDeniedEvent" value="false" />
		<!-- if an approximation of the opportunity cost of time is included into the radius calculation for location choice.`true' will be faster, but it is an approximation.  Default is `true'; `false' is available for backwards compatibility. -->
		<param name="isUsingOpportunityCostOfTimeForLocationChoice" value="true" />
		<param name="logitScaleParamForPlansRemoval" value="1.0" />
		<!-- Options: | ignore | info | warn | abort | .  When violating VSP defaults, this results in nothing, logfile infos, logfile warnings, or aborts.  Members of VSP should use `abort' or talk to kai. -->
		<param name="vspDefaultsCheckingLevel" value="ignore" />
		<!-- if true then writes output_events in output directory.  default is `false'. Will only work when lastIteration is multiple of events writing interval -->
		<param name="writingOutputEvents" value="true" />
	</module>

</config>

2024-12-19T02:05:06,539  INFO ControlerUtils:84 Complete config dump done.
2024-12-19T02:05:06,539  INFO ControlerUtils:85 Checking consistency of config...
2024-12-19T02:05:06,539  INFO VspConfigConsistencyCheckerImpl:68 NOT running vsp config consistency check because vsp defaults checking level is set to IGNORE
2024-12-19T02:05:06,544  WARN ConfigConsistencyCheckerImpl:167 Using lanes without enabling linktolinkrouting might not lead to expected simulation results
2024-12-19T02:05:06,544  INFO ControlerUtils:87 Checking consistency of config done.
2024-12-19T02:05:06,544  INFO PrepareForSimImpl:128 Network seems to be multimodal. Create car-only network which is handed over to PersonPrepareForSim.
2024-12-19T02:05:06,546  INFO NetworkImpl:165  node # 1
2024-12-19T02:05:06,546  INFO NetworkImpl:165  node # 4
2024-12-19T02:05:06,546  INFO NetworkImpl:165  node # 16
2024-12-19T02:05:06,547  INFO NetworkImpl:165  node # 64
2024-12-19T02:05:06,547  INFO NetworkImpl:165  node # 256
2024-12-19T02:05:06,549  INFO NetworkImpl:165  node # 1024
2024-12-19T02:05:06,550  INFO NetworkImpl:165  node # 4096
2024-12-19T02:05:06,557  INFO NetworkImpl:165  node # 16384
2024-12-19T02:05:06,561  INFO NetworkImpl:161  link # 1
2024-12-19T02:05:06,561  INFO NetworkImpl:161  link # 4
2024-12-19T02:05:06,562  INFO NetworkImpl:161  link # 16
2024-12-19T02:05:06,563  INFO NetworkImpl:161  link # 64
2024-12-19T02:05:06,564  INFO NetworkImpl:161  link # 256
2024-12-19T02:05:06,568  INFO NetworkImpl:161  link # 1024
2024-12-19T02:05:06,579  INFO NetworkImpl:161  link # 4096
2024-12-19T02:05:06,615  INFO NetworkImpl:161  link # 16384
2024-12-19T02:05:06,708  INFO Counter:70 [VehiclesImpl] added vehicle # 1
2024-12-19T02:05:06,708  INFO Counter:70 [VehiclesImpl] added vehicle # 2
2024-12-19T02:05:06,708  INFO Counter:70 [VehiclesImpl] added vehicle # 4
2024-12-19T02:05:06,709  INFO Counter:70 [VehiclesImpl] added vehicle # 8
2024-12-19T02:05:06,709  INFO Counter:70 [VehiclesImpl] added vehicle # 16
2024-12-19T02:05:06,709  INFO Counter:70 [VehiclesImpl] added vehicle # 32
2024-12-19T02:05:06,710  INFO Counter:70 [VehiclesImpl] added vehicle # 64
2024-12-19T02:05:06,710  INFO Counter:70 [VehiclesImpl] added vehicle # 128
2024-12-19T02:05:06,711  INFO Counter:70 [VehiclesImpl] added vehicle # 256
2024-12-19T02:05:06,713  INFO Counter:70 [VehiclesImpl] added vehicle # 512
2024-12-19T02:05:06,715  INFO Counter:70 [VehiclesImpl] added vehicle # 1024
2024-12-19T02:05:06,719  INFO Counter:70 [VehiclesImpl] added vehicle # 2048
2024-12-19T02:05:06,723  INFO Counter:70 [VehiclesImpl] added vehicle # 4096
2024-12-19T02:05:06,731  INFO Counter:70 [VehiclesImpl] added vehicle # 8192
2024-12-19T02:05:06,746  INFO Counter:70 [VehiclesImpl] added vehicle # 16384
2024-12-19T02:05:06,771  INFO Counter:70 [VehiclesImpl] added vehicle # 32768
2024-12-19T02:05:06,799  INFO Counter:70 [VehiclesImpl] added vehicle # 65536
2024-12-19T02:05:06,853  INFO Counter:70 [VehiclesImpl] added vehicle # 131072
2024-12-19T02:05:06,985  INFO Counter:70 [VehiclesImpl] added vehicle # 262144
2024-12-19T02:05:07,343  INFO Counter:70 [VehiclesImpl] added vehicle # 524288
2024-12-19T02:05:07,887  INFO NetworkImpl:165  node # 1
2024-12-19T02:05:07,887  INFO NetworkImpl:165  node # 4
2024-12-19T02:05:07,887  INFO NetworkImpl:165  node # 16
2024-12-19T02:05:07,887  INFO NetworkImpl:165  node # 64
2024-12-19T02:05:07,888  INFO NetworkImpl:165  node # 256
2024-12-19T02:05:07,888  INFO NetworkImpl:165  node # 1024
2024-12-19T02:05:07,889  INFO NetworkImpl:165  node # 4096
2024-12-19T02:05:07,892  INFO NetworkImpl:165  node # 16384
2024-12-19T02:05:07,894  INFO NetworkImpl:161  link # 1
2024-12-19T02:05:07,894  INFO NetworkImpl:161  link # 4
2024-12-19T02:05:07,894  INFO NetworkImpl:161  link # 16
2024-12-19T02:05:07,894  INFO NetworkImpl:161  link # 64
2024-12-19T02:05:07,894  INFO NetworkImpl:161  link # 256
2024-12-19T02:05:07,896  INFO NetworkImpl:161  link # 1024
2024-12-19T02:05:07,900  INFO NetworkImpl:161  link # 4096
2024-12-19T02:05:07,917  INFO NetworkImpl:161  link # 16384
2024-12-19T02:05:07,995  WARN RandomizingTimeDistanceTravelDisutilityFactory:118 There will be no routing randomness. The randomization of the travel disutility requires the travel time cost rate to be different than zero. Continuing anyway.
2024-12-19T02:05:07,996  INFO RandomizingTimeDistanceTravelDisutilityFactory:86  sigma: 3.0; resulting normalization: 0.011108996538242306
2024-12-19T02:05:08,022  INFO RandomizingTimeDistanceTravelDisutilityFactory:86  sigma: 3.0; resulting normalization: 0.011108996538242306
2024-12-19T02:05:08,086  INFO Counter:70 [PersonPrepareForSim] handled person # 2
2024-12-19T02:05:08,086  INFO Counter:70 [PersonPrepareForSim] handled person # 1
2024-12-19T02:05:08,087  INFO Counter:70 [PersonPrepareForSim] handled person # 4
2024-12-19T02:05:08,087  INFO Counter:70 [PersonPrepareForSim] handled person # 8
2024-12-19T02:05:08,087  INFO Counter:70 [PersonPrepareForSim] handled person # 16
2024-12-19T02:05:08,087  INFO Counter:70 [PersonPrepareForSim] handled person # 32
2024-12-19T02:05:08,087  INFO Counter:70 [PersonPrepareForSim] handled person # 64
2024-12-19T02:05:08,087  INFO Counter:70 [PersonPrepareForSim] handled person # 128
2024-12-19T02:05:08,088  INFO Counter:70 [PersonPrepareForSim] handled person # 256
2024-12-19T02:05:08,088  INFO Counter:70 [PersonPrepareForSim] handled person # 512
2024-12-19T02:05:08,089  INFO Counter:70 [PersonPrepareForSim] handled person # 1024
2024-12-19T02:05:08,090  INFO Counter:70 [PersonPrepareForSim] handled person # 2048
2024-12-19T02:05:08,092  INFO Counter:70 [PersonPrepareForSim] handled person # 4096
2024-12-19T02:05:08,095  INFO Counter:70 [PersonPrepareForSim] handled person # 8192
2024-12-19T02:05:08,098  INFO Counter:70 [PersonPrepareForSim] handled person # 16384
2024-12-19T02:05:08,106  INFO Counter:70 [PersonPrepareForSim] handled person # 32768
2024-12-19T02:05:08,121  INFO Counter:70 [PersonPrepareForSim] handled person # 65536
2024-12-19T02:05:08,138  INFO Counter:70 [PersonPrepareForSim] handled person # 131072
2024-12-19T02:05:08,154  INFO Counter:70 [PersonPrepareForSim] handled person # 262144
2024-12-19T02:05:08,225  INFO Counter:70 [PersonPrepareForSim] handled person # 524288
2024-12-19T02:05:08,251  INFO Counter:75 [PersonPrepareForSim] handled person # 873965
2024-12-19T02:05:08,310  INFO AbstractController:136 ###################################################
2024-12-19T02:05:08,310  INFO AbstractController:137 ### ITERATION 0 BEGINS
2024-12-19T02:05:08,311  INFO ControlerListenerManagerImpl:156 calling notifyIterationStarts on org.matsim.analysis.LegHistogramListener with priority 0.0
2024-12-19T02:05:08,312  INFO ControlerListenerManagerImpl:156 calling notifyIterationStarts on org.matsim.analysis.LinkStatsControlerListener with priority 0.0
2024-12-19T02:05:08,312  INFO ControlerListenerManagerImpl:156 calling notifyIterationStarts on org.matsim.core.replanning.ReplanningContextImpl with priority 0.0
2024-12-19T02:05:08,312  INFO ControlerListenerManagerImpl:156 calling notifyIterationStarts on org.matsim.core.scoring.ScoringFunctionsForPopulation$$Lambda$234/0x00007effe4352230 with priority 0.0
2024-12-19T02:05:09,329  INFO ControlerListenerManagerImpl:156 calling notifyIterationStarts on org.matsim.core.scoring.ExperiencedPlansServiceImpl$1 with priority 0.0
2024-12-19T02:05:09,380  INFO ControlerListenerManagerImpl:159 [it.0] all ControlerIterationStartsListeners called.
2024-12-19T02:05:09,380  INFO ControlerListenerManagerImpl:242 calling notifyBeforeMobsim on org.matsim.core.controler.corelisteners.EventsHandlingImpl with priority 0.0
2024-12-19T02:05:09,381  INFO EventsManagerImpl:168 resetting Event-Handlers
2024-12-19T02:05:09,381  INFO EventsManagerImpl:175   org.matsim.core.trafficmonitoring.TravelTimeCalculator
2024-12-19T02:05:09,381  INFO EventsManagerImpl:175   org.matsim.analysis.VolumesAnalyzer
2024-12-19T02:05:09,382  INFO EventsManagerImpl:175   org.matsim.core.scoring.ScoringFunctionsForPopulation
2024-12-19T02:05:09,383  INFO EventsManagerImpl:175   org.matsim.analysis.LegHistogram
2024-12-19T02:05:09,383  INFO EventsManagerImpl:175   org.matsim.analysis.CalcLegTimes
2024-12-19T02:05:09,386  INFO EventsManagerImpl:138 adding Event-Handler: org.matsim.core.events.algorithms.EventWriterXML
2024-12-19T02:05:09,387  INFO EventsManagerImpl:144   org.matsim.core.events.algorithms.EventWriter
2024-12-19T02:05:09,387  INFO EventsManagerImpl:144   org.matsim.core.events.handler.BasicEventHandler
2024-12-19T02:05:09,387  INFO EventsManagerImpl:205     > org.matsim.api.core.v01.events.Event
2024-12-19T02:05:09,387  INFO EventsManagerImpl:154 
2024-12-19T02:05:09,387  INFO EventsManagerImpl:138 adding Event-Handler: org.matsim.core.events.algorithms.EventWriterXML
2024-12-19T02:05:09,387  INFO EventsManagerImpl:144   org.matsim.core.events.algorithms.EventWriter
2024-12-19T02:05:09,387  INFO EventsManagerImpl:144   org.matsim.core.events.handler.BasicEventHandler
2024-12-19T02:05:09,387  INFO EventsManagerImpl:205     > org.matsim.api.core.v01.events.Event
2024-12-19T02:05:09,387  INFO EventsManagerImpl:154 
2024-12-19T02:05:09,387  INFO ControlerListenerManagerImpl:242 calling notifyBeforeMobsim on org.matsim.core.controler.corelisteners.PlansDumpingImpl with priority 0.0
2024-12-19T02:05:09,387  INFO PlansDumpingImpl:77 dumping plans...
2024-12-19T02:05:09,794  INFO Counter:70 [PopulationWriter] dumped person # 1
2024-12-19T02:05:09,794  INFO Counter:70 [PopulationWriter] dumped person # 2
2024-12-19T02:05:09,795  INFO Counter:70 [PopulationWriter] dumped person # 4
2024-12-19T02:05:09,795  INFO Counter:70 [PopulationWriter] dumped person # 8
2024-12-19T02:05:09,795  INFO Counter:70 [PopulationWriter] dumped person # 16
2024-12-19T02:05:09,795  INFO Counter:70 [PopulationWriter] dumped person # 32
2024-12-19T02:05:09,795  INFO Counter:70 [PopulationWriter] dumped person # 64
2024-12-19T02:05:09,796  INFO Counter:70 [PopulationWriter] dumped person # 128
2024-12-19T02:05:09,796  INFO Counter:70 [PopulationWriter] dumped person # 256
2024-12-19T02:05:09,797  INFO Counter:70 [PopulationWriter] dumped person # 512
2024-12-19T02:05:09,802  INFO Counter:70 [ParallelPopulationWriterV6] dumped person # 1
2024-12-19T02:05:09,803  INFO Counter:70 [ParallelPopulationWriterV6] dumped person # 2
2024-12-19T02:05:09,803  INFO Counter:70 [ParallelPopulationWriterV6] dumped person # 4
2024-12-19T02:05:09,803  INFO Counter:70 [ParallelPopulationWriterV6] dumped person # 8
2024-12-19T02:05:09,804  INFO Counter:70 [ParallelPopulationWriterV6] dumped person # 16
2024-12-19T02:05:09,804  INFO Counter:70 [PopulationWriter] dumped person # 1024
2024-12-19T02:05:09,804  INFO Counter:70 [ParallelPopulationWriterV6] dumped person # 32
2024-12-19T02:05:09,806  INFO Counter:70 [ParallelPopulationWriterV6] dumped person # 64
2024-12-19T02:05:09,808  INFO Counter:70 [ParallelPopulationWriterV6] dumped person # 128
2024-12-19T02:05:09,813  INFO Counter:70 [ParallelPopulationWriterV6] dumped person # 256
2024-12-19T02:05:09,822  INFO Counter:70 [ParallelPopulationWriterV6] dumped person # 512
2024-12-19T02:05:09,833  INFO Counter:70 [ParallelPopulationWriterV6] dumped person # 1024
2024-12-19T02:05:09,833  INFO Counter:70 [PopulationWriter] dumped person # 2048
2024-12-19T02:05:09,847  INFO Counter:70 [ParallelPopulationWriterV6] dumped person # 2048
2024-12-19T02:05:09,856  INFO Counter:70 [PopulationWriter] dumped person # 4096
2024-12-19T02:05:09,863  INFO Counter:70 [ParallelPopulationWriterV6] dumped person # 4096
2024-12-19T02:05:09,884  INFO Counter:70 [PopulationWriter] dumped person # 8192
2024-12-19T02:05:09,890  INFO Counter:70 [ParallelPopulationWriterV6] dumped person # 8192
2024-12-19T02:05:09,937  INFO Counter:70 [PopulationWriter] dumped person # 16384
2024-12-19T02:05:09,944  INFO Counter:70 [ParallelPopulationWriterV6] dumped person # 16384
2024-12-19T02:05:10,033  INFO Counter:70 [PopulationWriter] dumped person # 32768
2024-12-19T02:05:10,039  INFO Counter:70 [ParallelPopulationWriterV6] dumped person # 32768
2024-12-19T02:05:10,351  INFO Counter:70 [PopulationWriter] dumped person # 65536
2024-12-19T02:05:10,357  INFO Counter:70 [ParallelPopulationWriterV6] dumped person # 65536
2024-12-19T02:05:10,749  INFO Counter:70 [PopulationWriter] dumped person # 131072
2024-12-19T02:05:10,754  INFO Counter:70 [ParallelPopulationWriterV6] dumped person # 131072
2024-12-19T02:05:11,424  INFO Counter:70 [PopulationWriter] dumped person # 262144
2024-12-19T02:05:11,430  INFO Counter:70 [ParallelPopulationWriterV6] dumped person # 262144
2024-12-19T02:05:12,822  INFO Counter:70 [PopulationWriter] dumped person # 524288
2024-12-19T02:05:12,827  INFO Counter:70 [ParallelPopulationWriterV6] dumped person # 524288
2024-12-19T02:05:14,546  INFO Counter:75 [ParallelPopulationWriterV6] dumped person # 873965
2024-12-19T02:05:14,546  INFO PopulationWriter:150 Population written to: scenarios/equil/output/run_20241219_020457/ITERS/it.0/0.plans.xml.gz
2024-12-19T02:05:14,547  INFO Counter:75 [PopulationWriter] dumped person # 873965
2024-12-19T02:05:14,547  INFO PlansDumpingImpl:94 finished plans dump.
2024-12-19T02:05:14,547  INFO ControlerListenerManagerImpl:248 calling notifyBeforeMobsim on org.matsim.core.population.VspPlansCleaner with priority 0.0
2024-12-19T02:05:14,660  INFO ControlerListenerManagerImpl:251 [it.0] all ControlerBeforeMobsimListeners called.
2024-12-19T02:05:14,661  INFO PrepareForMobsimImpl:86 Network seems to be multimodal. Create car-only network which is handed over to PersonPrepareForSim.
2024-12-19T02:05:14,661  INFO NetworkImpl:165  node # 1
2024-12-19T02:05:14,661  INFO NetworkImpl:165  node # 4
2024-12-19T02:05:14,661  INFO NetworkImpl:165  node # 16
2024-12-19T02:05:14,661  INFO NetworkImpl:165  node # 64
2024-12-19T02:05:14,662  INFO NetworkImpl:165  node # 256
2024-12-19T02:05:14,662  INFO NetworkImpl:165  node # 1024
2024-12-19T02:05:14,662  INFO NetworkImpl:165  node # 4096
2024-12-19T02:05:14,665  INFO NetworkImpl:165  node # 16384
2024-12-19T02:05:14,666  INFO NetworkImpl:161  link # 1
2024-12-19T02:05:14,666  INFO NetworkImpl:161  link # 4
2024-12-19T02:05:14,666  INFO NetworkImpl:161  link # 16
2024-12-19T02:05:14,666  INFO NetworkImpl:161  link # 64
2024-12-19T02:05:14,667  INFO NetworkImpl:161  link # 256
2024-12-19T02:05:14,667  INFO NetworkImpl:161  link # 1024
2024-12-19T02:05:14,670  INFO NetworkImpl:161  link # 4096
2024-12-19T02:05:14,716  INFO NetworkImpl:161  link # 16384
2024-12-19T02:05:14,780  INFO RandomizingTimeDistanceTravelDisutilityFactory:86  sigma: 3.0; resulting normalization: 0.011108996538242306
2024-12-19T02:05:14,786  INFO RandomizingTimeDistanceTravelDisutilityFactory:86  sigma: 3.0; resulting normalization: 0.011108996538242306
2024-12-19T02:05:14,833  INFO Counter:70 [PersonPrepareForSim] handled person # 2
2024-12-19T02:05:14,834  INFO Counter:70 [PersonPrepareForSim] handled person # 4
2024-12-19T02:05:14,833  INFO Counter:70 [PersonPrepareForSim] handled person # 1
2024-12-19T02:05:14,834  INFO Counter:70 [PersonPrepareForSim] handled person # 8
2024-12-19T02:05:14,834  INFO Counter:70 [PersonPrepareForSim] handled person # 16
2024-12-19T02:05:14,834  INFO Counter:70 [PersonPrepareForSim] handled person # 32
2024-12-19T02:05:14,834  INFO Counter:70 [PersonPrepareForSim] handled person # 64
2024-12-19T02:05:14,834  INFO Counter:70 [PersonPrepareForSim] handled person # 128
2024-12-19T02:05:14,834  INFO Counter:70 [PersonPrepareForSim] handled person # 256
2024-12-19T02:05:14,835  INFO Counter:70 [PersonPrepareForSim] handled person # 512
2024-12-19T02:05:14,835  INFO Counter:70 [PersonPrepareForSim] handled person # 1024
2024-12-19T02:05:14,835  INFO Counter:70 [PersonPrepareForSim] handled person # 2048
2024-12-19T02:05:14,835  INFO Counter:70 [PersonPrepareForSim] handled person # 4096
2024-12-19T02:05:14,836  INFO Counter:70 [PersonPrepareForSim] handled person # 8192
2024-12-19T02:05:14,837  INFO Counter:70 [PersonPrepareForSim] handled person # 16384
2024-12-19T02:05:14,838  INFO Counter:70 [PersonPrepareForSim] handled person # 32768
2024-12-19T02:05:14,842  INFO Counter:70 [PersonPrepareForSim] handled person # 65536
2024-12-19T02:05:14,849  INFO Counter:70 [PersonPrepareForSim] handled person # 131072
2024-12-19T02:05:14,862  INFO Counter:70 [PersonPrepareForSim] handled person # 262144
2024-12-19T02:05:14,887  INFO Counter:70 [PersonPrepareForSim] handled person # 524288
2024-12-19T02:05:14,920  INFO Counter:75 [PersonPrepareForSim] handled person # 873965
2024-12-19T02:05:14,969  INFO MobsimListenerManager:50 calling addQueueSimulationListener
2024-12-19T02:05:14,970  INFO MobsimListenerManager:54   assigned class org.matsim.core.mobsim.framework.listeners.MobsimListener to interface org.matsim.core.mobsim.framework.listeners.MobsimListener
2024-12-19T02:05:14,970  INFO MobsimListenerManager:54   assigned class org.matsim.core.mobsim.framework.listeners.MobsimListener to interface org.matsim.core.mobsim.framework.listeners.MobsimInitializedListener
2024-12-19T02:05:14,970  INFO MobsimListenerManager:54   assigned class org.matsim.core.mobsim.framework.listeners.MobsimListener to interface org.matsim.core.mobsim.framework.listeners.MobsimBeforeCleanupListener
2024-12-19T02:05:14,970  INFO MobsimListenerManager:54   assigned class org.matsim.core.mobsim.framework.listeners.MobsimListener to interface org.matsim.vis.snapshotwriters.SnapshotWriterManager
2024-12-19T02:05:14,970  INFO MobsimListenerManager:54   assigned class org.matsim.core.mobsim.framework.listeners.MobsimListener to interface org.matsim.core.mobsim.framework.listeners.MobsimAfterSimStepListener
2024-12-19T02:05:14,974  INFO QSimProvider:131 Added MobsimEngine class org.matsim.core.mobsim.qsim.ActivityEngineDefaultImpl
2024-12-19T02:05:14,974  INFO QSimProvider:137 Added Activityhandler class org.matsim.core.mobsim.qsim.ActivityEngineDefaultImpl
2024-12-19T02:05:15,124  INFO QSimProvider:143 Added DepartureHandler class org.matsim.core.mobsim.qsim.qnetsimengine.VehicularDepartureHandler
2024-12-19T02:05:15,124  INFO QSimProvider:131 Added MobsimEngine class org.matsim.core.mobsim.qsim.qnetsimengine.QNetsimEngineWithThreadpool
2024-12-19T02:05:15,125  INFO QSimProvider:131 Added MobsimEngine class org.matsim.core.mobsim.qsim.DefaultTeleportationEngine
2024-12-19T02:05:15,125  INFO QSimProvider:143 Added DepartureHandler class org.matsim.core.mobsim.qsim.DefaultTeleportationEngine
2024-12-19T02:05:15,125  INFO QSimProvider:149 Added AgentSource class org.matsim.core.mobsim.qsim.agents.PopulationAgentSource
2024-12-19T02:05:15,125  INFO MobsimListenerManager:50 calling addQueueSimulationListener
2024-12-19T02:05:15,125  INFO MobsimListenerManager:54   assigned class org.matsim.core.mobsim.framework.listeners.MobsimListener to interface org.matsim.core.mobsim.framework.listeners.MobsimListener
2024-12-19T02:05:15,125  INFO MobsimListenerManager:54   assigned class org.matsim.core.mobsim.framework.listeners.MobsimListener to interface org.matsim.core.mobsim.qsim.messagequeueengine.MessageQueueEngine
2024-12-19T02:05:15,125  INFO MobsimListenerManager:54   assigned class org.matsim.core.mobsim.framework.listeners.MobsimListener to interface org.matsim.core.mobsim.framework.listeners.MobsimBeforeSimStepListener
2024-12-19T02:05:15,125  INFO QSimProvider:155 Added MobsimListener class org.matsim.core.mobsim.qsim.messagequeueengine.MessageQueueEngine
2024-12-19T02:05:15,130  INFO PopulationUtils:1247 adding scenario element for allpersons container
2024-12-19T02:05:15,130  INFO PopulationImpl:107  person # 1
2024-12-19T02:05:15,130  INFO PopulationImpl:107  person # 4
2024-12-19T02:05:15,130  INFO PopulationImpl:107  person # 16
2024-12-19T02:05:15,131  INFO PopulationImpl:107  person # 64
2024-12-19T02:05:15,132  INFO PopulationImpl:107  person # 256
2024-12-19T02:05:15,136  INFO PopulationImpl:107  person # 1024
2024-12-19T02:05:15,141  INFO PopulationImpl:107  person # 4096
2024-12-19T02:05:15,158  INFO PopulationImpl:107  person # 16384
2024-12-19T02:05:15,216  INFO PopulationImpl:107  person # 65536
2024-12-19T02:05:15,336  INFO PopulationImpl:107  person # 262144
2024-12-19T02:05:16,077  INFO AbstractQNetsimEngine:426 Assigned 27759 nodes and 64052 links to QSimEngineRunner #0
2024-12-19T02:05:17,128  INFO EventsManagerImpl:115  event # 1
2024-12-19T02:05:17,130  INFO EventsManagerImpl:115  event # 4
2024-12-19T02:05:17,130  INFO EventsManagerImpl:115  event # 16
2024-12-19T02:05:17,132  INFO EventsManagerImpl:115  event # 64
2024-12-19T02:05:17,138  INFO EventsManagerImpl:115  event # 256
2024-12-19T02:05:17,152  INFO EventsManagerImpl:115  event # 1024
2024-12-19T02:05:17,175  INFO EventsManagerImpl:115  event # 4096
2024-12-19T02:05:17,249  INFO EventsManagerImpl:115  event # 16384
2024-12-19T02:05:17,499  INFO EventsManagerImpl:115  event # 65536
2024-12-19T02:05:18,149  INFO EventsManagerImpl:115  event # 262144
2024-12-19T02:05:19,896  INFO AbstractQNetsimEngine:364 SIMULATION (QNetsimEngine) AT 08:00:00 : #links=0 #nodes=0
2024-12-19T02:05:19,902  INFO QSim:566 SIMULATION (NEW QSim) AT 08:00:00 : #Veh=0 lost=0 simT=0.0s realT=4s; (s/r): 0.0
2024-12-19T02:05:20,402  INFO EventsManagerImpl:115  event # 1048576
2024-12-19T02:05:22,325  INFO Gbl:196 Thread performance: Thread=class org.matsim.core.events.SimStepParallelEventsManagerImpl$ProcessEventsRunnable0  cpu-time=4.746310303sec
2024-12-19T02:05:22,325  INFO AbstractController$9:237 ### ITERATION 0 fires after mobsim event
2024-12-19T02:05:22,326  INFO ControlerListenerManagerImpl:269 calling notifyAfterMobsim on org.matsim.analysis.LegTimesControlerListener with priority 0.0
2024-12-19T02:05:22,329  INFO LegTimesControlerListener:51 [0] average trip (probably: leg) duration is: 0 seconds = 00:00:00
2024-12-19T02:05:22,329  INFO ControlerListenerManagerImpl:269 calling notifyAfterMobsim on org.matsim.core.events.MobsimScopeEventHandling with priority 0.0
2024-12-19T02:05:22,330  INFO ControlerListenerManagerImpl:269 calling notifyAfterMobsim on org.matsim.core.scoring.EventsToActivities$1 with priority 0.0
2024-12-19T02:05:22,331  WARN CharyparNagelActivityScoring:247 The first and the last activity do not have the same type. 
2024-12-19T02:05:22,331  WARN CharyparNagelActivityScoring:248 Will score the first activity from midnight to its end, and the last activity from its start to midnight.
2024-12-19T02:05:22,331  WARN CharyparNagelActivityScoring:249 Because of the nonlinear function, this is not the same as scoring from start to end.
2024-12-19T02:05:22,336  WARN CharyparNagelActivityScoring:250 first activity: act [type=home][coord=null][linkId=275708020003f][startTime=undefined][endTime=08:00:00][duration=undefined][facilityId=null]
2024-12-19T02:05:22,336  WARN CharyparNagelActivityScoring:251 last activity: act [type=work][coord=null][linkId=275708020003f][startTime=08:00:00][endTime=undefined][duration=undefined][facilityId=null]
2024-12-19T02:05:22,336  WARN CharyparNagelActivityScoring:252 This may also happen when plans are not completed when the simulation ends.
2024-12-19T02:05:22,336  WARN CharyparNagelActivityScoring:254 Additional warnings of this type are suppressed.
2024-12-19T02:05:22,826  INFO ControlerListenerManagerImpl:272 [it.0] all ControlerAfterMobsimListeners called.
2024-12-19T02:05:22,827  INFO AbstractController$4:162 ### ITERATION 0 fires scoring event
2024-12-19T02:05:22,828  INFO ControlerListenerManagerImpl:197 calling notifyScoring on org.matsim.core.scoring.PlansScoringImpl with priority 0.0
2024-12-19T02:05:23,147  INFO NewScoreAssignerImpl:58 it: 0 msaStart: null
2024-12-19T02:05:23,378  INFO ControlerListenerManagerImpl:209 [it.0] all ControlerScoringListeners called.
2024-12-19T02:05:23,378  INFO AbstractController$5:170 ### ITERATION 0 fires iteration end event
2024-12-19T02:05:23,379  INFO ControlerListenerManagerImpl:172 calling notifyIterationEnds on org.matsim.core.controler.corelisteners.EventsHandlingImpl with priority 0.0
2024-12-19T02:05:23,379  INFO EventsManagerImpl:159 removing Event-Handler: org.matsim.core.events.algorithms.EventWriterXML
2024-12-19T02:05:23,379  INFO EventsManagerImpl:159 removing Event-Handler: org.matsim.core.events.algorithms.EventWriterXML
2024-12-19T02:05:23,379  INFO ControlerListenerManagerImpl:172 calling notifyIterationEnds on org.matsim.core.scoring.PlansScoringImpl with priority 0.0
2024-12-19T02:05:23,727  INFO ControlerListenerManagerImpl:180 calling notifyIterationEnds on org.matsim.counts.CountsControlerListener with priority 0.0
2024-12-19T02:05:23,727  INFO ControlerListenerManagerImpl:180 calling notifyIterationEnds on org.matsim.analysis.ModeStatsControlerListener with priority 0.0
2024-12-19T02:05:23,894  INFO ModeStatsControlerListener:133 Mode shares over all 0.0 trips found. MainModeIdentifier: class org.matsim.core.router.DefaultAnalysisMainModeIdentifier
2024-12-19T02:05:23,895  INFO ControlerListenerManagerImpl:180 calling notifyIterationEnds on org.matsim.analysis.ScoreStatsControlerListener with priority 0.0
2024-12-19T02:05:23,986  INFO ScoreStatsControlerListener:154 -- avg. score of the executed plan of each agent: 101.51740267879546
2024-12-19T02:05:23,986  INFO ScoreStatsControlerListener:155 -- avg. score of the worst plan of each agent: 101.51740267879546
2024-12-19T02:05:23,987  INFO ScoreStatsControlerListener:156 -- avg. of the avg. plan score per agent: 101.51740267879546
2024-12-19T02:05:23,987  INFO ScoreStatsControlerListener:157 -- avg. score of the best plan of each agent: 101.51740267879546
2024-12-19T02:05:23,992  INFO ControlerListenerManagerImpl:180 calling notifyIterationEnds on org.matsim.analysis.IterationTravelStatsControlerListener with priority 0.0
2024-12-19T02:05:24,119  INFO TravelDistanceStats:115 -- average leg distance per plan (executed plans only): 0.0 meters
2024-12-19T02:05:24,119  INFO TravelDistanceStats:116 average leg distance per Person (executed plans only): 0.0 meters (statistic on all 0 legs which have a finite distance)
2024-12-19T02:05:24,119  INFO TravelDistanceStats:117 -- average trip distance per plan (executed plans only): 0.0 meters
2024-12-19T02:05:24,119  INFO TravelDistanceStats:118 average trip distance per Person (executed plans only): 0.0 meters (statistic on all 0 trips which have a finite distance)
2024-12-19T02:05:24,119  INFO TravelDistanceStats:119 (TravelDistanceStats takes an average over all legs where the simulation reports travelled (network) distances
2024-12-19T02:05:24,120  INFO TravelDistanceStats:120 (and teleported legs whose route contains a distance.)
2024-12-19T02:05:24,389  INFO ActivityWriter:39 Writing all Activities to activitiescsv
2024-12-19T02:05:28,356  INFO ActivityWriter:59 ...done
2024-12-19T02:05:28,357  INFO ControlerListenerManagerImpl:180 calling notifyIterationEnds on org.matsim.analysis.LegHistogramListener with priority 0.0
2024-12-19T02:05:28,362  INFO LegHistogramListener:73 number of legs:	0	100%
2024-12-19T02:05:28,473  INFO ControlerListenerManagerImpl:180 calling notifyIterationEnds on org.matsim.analysis.LinkStatsControlerListener with priority 0.0
2024-12-19T02:05:28,473  INFO ControlerListenerManagerImpl:184 [it.0] all ControlerIterationEndsListeners called.
2024-12-19T02:05:28,564  INFO AbstractController:184 ### ITERATION 0 ENDS
2024-12-19T02:05:28,564  INFO AbstractController:185 ###################################################
2024-12-19T02:05:28,564  INFO AbstractController:136 ###################################################
2024-12-19T02:05:28,564  INFO AbstractController:137 ### ITERATION 1 BEGINS
2024-12-19T02:05:28,564  INFO ControlerListenerManagerImpl:156 calling notifyIterationStarts on org.matsim.analysis.LegHistogramListener with priority 0.0
2024-12-19T02:05:28,565  INFO ControlerListenerManagerImpl:156 calling notifyIterationStarts on org.matsim.analysis.LinkStatsControlerListener with priority 0.0
2024-12-19T02:05:28,565  INFO ControlerListenerManagerImpl:156 calling notifyIterationStarts on org.matsim.core.replanning.ReplanningContextImpl with priority 0.0
2024-12-19T02:05:28,565  INFO ControlerListenerManagerImpl:156 calling notifyIterationStarts on org.matsim.core.scoring.ScoringFunctionsForPopulation$$Lambda$234/0x00007effe4352230 with priority 0.0
2024-12-19T02:05:29,138  INFO ControlerListenerManagerImpl:156 calling notifyIterationStarts on org.matsim.core.scoring.ExperiencedPlansServiceImpl$1 with priority 0.0
2024-12-19T02:05:29,194  INFO ControlerListenerManagerImpl:159 [it.1] all ControlerIterationStartsListeners called.
2024-12-19T02:05:29,195  INFO ControlerListenerManagerImpl:221 calling notifyReplanning on org.matsim.core.controler.corelisteners.PlansReplanningImpl with priority 0.0
2024-12-19T02:05:29,196  INFO RandomizingTimeDistanceTravelDisutilityFactory:86  sigma: 3.0; resulting normalization: 0.011108996538242306
2024-12-19T02:05:29,197  INFO RandomizingTimeDistanceTravelDisutilityFactory:86  sigma: 3.0; resulting normalization: 0.011108996538242306
2024-12-19T02:05:29,648  INFO GenericPlanStrategyImpl:135 Plan-Strategy finished, 715190 plans handled. Strategy: BestPlanSelector
2024-12-19T02:05:29,648  INFO AbstractMultithreadedModule:142 [PlanRouter] starting 2 threads, handling 79314 plans
2024-12-19T02:05:29,649  INFO Counter:70 [PlanRouter] handled plan # 2
2024-12-19T02:05:29,649  INFO Counter:70 [PlanRouter] handled plan # 1
2024-12-19T02:05:29,650  INFO Counter:70 [PlanRouter] handled plan # 4
2024-12-19T02:05:29,650  INFO Counter:70 [PlanRouter] handled plan # 8
2024-12-19T02:05:29,650  INFO Counter:70 [PlanRouter] handled plan # 16
2024-12-19T02:05:29,650  INFO Counter:70 [PlanRouter] handled plan # 32
2024-12-19T02:05:29,650  INFO Counter:70 [PlanRouter] handled plan # 64
2024-12-19T02:05:29,650  INFO Counter:70 [PlanRouter] handled plan # 128
2024-12-19T02:05:29,650  INFO Counter:70 [PlanRouter] handled plan # 256
2024-12-19T02:05:29,650  INFO Counter:70 [PlanRouter] handled plan # 512
2024-12-19T02:05:29,651  INFO Counter:70 [PlanRouter] handled plan # 1024
2024-12-19T02:05:29,651  INFO Counter:70 [PlanRouter] handled plan # 2048
2024-12-19T02:05:29,652  INFO Counter:70 [PlanRouter] handled plan # 4096
2024-12-19T02:05:29,653  INFO Counter:70 [PlanRouter] handled plan # 8192
2024-12-19T02:05:29,655  INFO Counter:70 [PlanRouter] handled plan # 16384
2024-12-19T02:05:29,660  INFO Counter:70 [PlanRouter] handled plan # 32768
2024-12-19T02:05:29,669  INFO Counter:70 [PlanRouter] handled plan # 65536
2024-12-19T02:05:29,673  INFO AbstractMultithreadedModule:157 [PlanRouter] all 2 threads finished.
2024-12-19T02:05:29,673  INFO GenericPlanStrategyImpl:135 Plan-Strategy finished, 79314 plans handled. Strategy: RandomPlanSelector_ReRoute
2024-12-19T02:05:29,673  INFO AbstractMultithreadedModule:142 [MutateActivityTimeAllocation] starting 2 threads, handling 79461 plans
2024-12-19T02:05:29,674  INFO Counter:70 [MutateActivityTimeAllocation] handled plan # 2
2024-12-19T02:05:29,674  INFO Counter:70 [MutateActivityTimeAllocation] handled plan # 1
2024-12-19T02:05:29,674  INFO Counter:70 [MutateActivityTimeAllocation] handled plan # 4
2024-12-19T02:05:29,674  INFO Counter:70 [MutateActivityTimeAllocation] handled plan # 8
2024-12-19T02:05:29,674  INFO Counter:70 [MutateActivityTimeAllocation] handled plan # 16
2024-12-19T02:05:29,674  INFO Counter:70 [MutateActivityTimeAllocation] handled plan # 32
2024-12-19T02:05:29,675  INFO Counter:70 [MutateActivityTimeAllocation] handled plan # 64
2024-12-19T02:05:29,675  INFO Counter:70 [MutateActivityTimeAllocation] handled plan # 128
2024-12-19T02:05:29,675  INFO Counter:70 [MutateActivityTimeAllocation] handled plan # 256
2024-12-19T02:05:29,675  INFO Counter:70 [MutateActivityTimeAllocation] handled plan # 512
2024-12-19T02:05:29,676  INFO Counter:70 [MutateActivityTimeAllocation] handled plan # 1024
2024-12-19T02:05:29,677  INFO Counter:70 [MutateActivityTimeAllocation] handled plan # 2048
2024-12-19T02:05:29,679  INFO Counter:70 [MutateActivityTimeAllocation] handled plan # 4096
2024-12-19T02:05:29,683  INFO Counter:70 [MutateActivityTimeAllocation] handled plan # 8192
2024-12-19T02:05:29,690  INFO Counter:70 [MutateActivityTimeAllocation] handled plan # 16384
2024-12-19T02:05:29,697  INFO Counter:70 [MutateActivityTimeAllocation] handled plan # 32768
2024-12-19T02:05:29,704  INFO Counter:70 [MutateActivityTimeAllocation] handled plan # 65536
2024-12-19T02:05:29,707  INFO AbstractMultithreadedModule:157 [MutateActivityTimeAllocation] all 2 threads finished.
2024-12-19T02:05:29,707  INFO GenericPlanStrategyImpl:135 Plan-Strategy finished, 79461 plans handled. Strategy: RandomPlanSelector_TimeAllocationMutatorModule
2024-12-19T02:05:29,708  INFO ControlerListenerManagerImpl:230 [it.1] all ControlerReplanningListeners called.
2024-12-19T02:05:29,708  INFO ControlerListenerManagerImpl:242 calling notifyBeforeMobsim on org.matsim.core.controler.corelisteners.EventsHandlingImpl with priority 0.0
2024-12-19T02:05:29,708  INFO EventsManagerImpl:168 resetting Event-Handlers
2024-12-19T02:05:29,708  INFO EventsManagerImpl:175   org.matsim.core.trafficmonitoring.TravelTimeCalculator
2024-12-19T02:05:29,708  INFO EventsManagerImpl:175   org.matsim.analysis.VolumesAnalyzer
2024-12-19T02:05:29,709  INFO EventsManagerImpl:175   org.matsim.core.scoring.ScoringFunctionsForPopulation
2024-12-19T02:05:29,710  INFO EventsManagerImpl:175   org.matsim.analysis.LegHistogram
2024-12-19T02:05:29,710  INFO EventsManagerImpl:175   org.matsim.analysis.CalcLegTimes
2024-12-19T02:05:29,713  INFO EventsManagerImpl:138 adding Event-Handler: org.matsim.core.events.algorithms.EventWriterXML
2024-12-19T02:05:29,713  INFO EventsManagerImpl:144   org.matsim.core.events.algorithms.EventWriter
2024-12-19T02:05:29,713  INFO EventsManagerImpl:144   org.matsim.core.events.handler.BasicEventHandler
2024-12-19T02:05:29,713  INFO EventsManagerImpl:205     > org.matsim.api.core.v01.events.Event
2024-12-19T02:05:29,713  INFO EventsManagerImpl:154 
2024-12-19T02:05:29,713  INFO EventsManagerImpl:138 adding Event-Handler: org.matsim.core.events.algorithms.EventWriterXML
2024-12-19T02:05:29,713  INFO EventsManagerImpl:144   org.matsim.core.events.algorithms.EventWriter
2024-12-19T02:05:29,713  INFO EventsManagerImpl:144   org.matsim.core.events.handler.BasicEventHandler
2024-12-19T02:05:29,713  INFO EventsManagerImpl:205     > org.matsim.api.core.v01.events.Event
2024-12-19T02:05:29,713  INFO EventsManagerImpl:154 
2024-12-19T02:05:29,713  INFO ControlerListenerManagerImpl:242 calling notifyBeforeMobsim on org.matsim.core.controler.corelisteners.PlansDumpingImpl with priority 0.0
[...]
2024-12-19T02:05:35,112  INFO NetworkImpl:165  node # 4096
2024-12-19T02:05:35,115  INFO NetworkImpl:165  node # 16384
2024-12-19T02:05:35,116  INFO NetworkImpl:161  link # 1
2024-12-19T02:05:35,116  INFO NetworkImpl:161  link # 4
2024-12-19T02:05:35,116  INFO NetworkImpl:161  link # 16
2024-12-19T02:05:35,116  INFO NetworkImpl:161  link # 64
2024-12-19T02:05:35,116  INFO NetworkImpl:161  link # 256
2024-12-19T02:05:35,117  INFO NetworkImpl:161  link # 1024
2024-12-19T02:05:35,120  INFO NetworkImpl:161  link # 4096
2024-12-19T02:05:35,133  INFO NetworkImpl:161  link # 16384
2024-12-19T02:05:35,189  INFO RandomizingTimeDistanceTravelDisutilityFactory:86  sigma: 3.0; resulting normalization: 0.011108996538242306
2024-12-19T02:05:35,193  INFO RandomizingTimeDistanceTravelDisutilityFactory:86  sigma: 3.0; resulting normalization: 0.011108996538242306
2024-12-19T02:05:35,230  INFO Counter:70 [PersonPrepareForSim] handled person # 1
2024-12-19T02:05:35,230  INFO Counter:70 [PersonPrepareForSim] handled person # 2
2024-12-19T02:05:35,230  INFO Counter:70 [PersonPrepareForSim] handled person # 4
2024-12-19T02:05:35,230  INFO Counter:70 [PersonPrepareForSim] handled person # 8
2024-12-19T02:05:35,230  INFO Counter:70 [PersonPrepareForSim] handled person # 16
2024-12-19T02:05:35,230  INFO Counter:70 [PersonPrepareForSim] handled person # 32
2024-12-19T02:05:35,230  INFO Counter:70 [PersonPrepareForSim] handled person # 64
2024-12-19T02:05:35,231  INFO Counter:70 [PersonPrepareForSim] handled person # 128
2024-12-19T02:05:35,231  INFO Counter:70 [PersonPrepareForSim] handled person # 256
2024-12-19T02:05:35,231  INFO Counter:70 [PersonPrepareForSim] handled person # 512
2024-12-19T02:05:35,231  INFO Counter:70 [PersonPrepareForSim] handled person # 1024
2024-12-19T02:05:35,231  INFO Counter:70 [PersonPrepareForSim] handled person # 2048
2024-12-19T02:05:35,231  INFO Counter:70 [PersonPrepareForSim] handled person # 4096
2024-12-19T02:05:35,232  INFO Counter:70 [PersonPrepareForSim] handled person # 8192
2024-12-19T02:05:35,233  INFO Counter:70 [PersonPrepareForSim] handled person # 16384
2024-12-19T02:05:35,235  INFO Counter:70 [PersonPrepareForSim] handled person # 32768
2024-12-19T02:05:35,239  INFO Counter:70 [PersonPrepareForSim] handled person # 65536
2024-12-19T02:05:35,246  INFO Counter:70 [PersonPrepareForSim] handled person # 131072
2024-12-19T02:05:35,260  INFO Counter:70 [PersonPrepareForSim] handled person # 262144
2024-12-19T02:05:35,286  INFO Counter:70 [PersonPrepareForSim] handled person # 524288
2024-12-19T02:05:35,322  INFO Counter:75 [PersonPrepareForSim] handled person # 873965
2024-12-19T02:05:35,339  INFO MobsimListenerManager:50 calling addQueueSimulationListener
2024-12-19T02:05:35,340  INFO MobsimListenerManager:54   assigned class org.matsim.core.mobsim.framework.listeners.MobsimListener to interface org.matsim.core.mobsim.framework.listeners.MobsimListener
2024-12-19T02:05:35,340  INFO MobsimListenerManager:54   assigned class org.matsim.core.mobsim.framework.listeners.MobsimListener to interface org.matsim.core.mobsim.framework.listeners.MobsimInitializedListener
2024-12-19T02:05:35,340  INFO MobsimListenerManager:54   assigned class org.matsim.core.mobsim.framework.listeners.MobsimListener to interface org.matsim.core.mobsim.framework.listeners.MobsimBeforeCleanupListener
2024-12-19T02:05:35,340  INFO MobsimListenerManager:54   assigned class org.matsim.core.mobsim.framework.listeners.MobsimListener to interface org.matsim.vis.snapshotwriters.SnapshotWriterManager
2024-12-19T02:05:35,340  INFO MobsimListenerManager:54   assigned class org.matsim.core.mobsim.framework.listeners.MobsimListener to interface org.matsim.core.mobsim.framework.listeners.MobsimAfterSimStepListener
2024-12-19T02:05:35,341  INFO QSimProvider:131 Added MobsimEngine class org.matsim.core.mobsim.qsim.ActivityEngineDefaultImpl
2024-12-19T02:05:35,341  INFO QSimProvider:137 Added Activityhandler class org.matsim.core.mobsim.qsim.ActivityEngineDefaultImpl
2024-12-19T02:05:35,407  INFO QSimProvider:143 Added DepartureHandler class org.matsim.core.mobsim.qsim.qnetsimengine.VehicularDepartureHandler
2024-12-19T02:05:35,407  INFO QSimProvider:131 Added MobsimEngine class org.matsim.core.mobsim.qsim.qnetsimengine.QNetsimEngineWithThreadpool
2024-12-19T02:05:35,407  INFO QSimProvider:131 Added MobsimEngine class org.matsim.core.mobsim.qsim.DefaultTeleportationEngine
2024-12-19T02:05:35,407  INFO QSimProvider:143 Added DepartureHandler class org.matsim.core.mobsim.qsim.DefaultTeleportationEngine
2024-12-19T02:05:35,407  INFO QSimProvider:149 Added AgentSource class org.matsim.core.mobsim.qsim.agents.PopulationAgentSource
2024-12-19T02:05:35,407  INFO MobsimListenerManager:50 calling addQueueSimulationListener
2024-12-19T02:05:35,408  INFO MobsimListenerManager:54   assigned class org.matsim.core.mobsim.framework.listeners.MobsimListener to interface org.matsim.core.mobsim.framework.listeners.MobsimListener
2024-12-19T02:05:35,408  INFO MobsimListenerManager:54   assigned class org.matsim.core.mobsim.framework.listeners.MobsimListener to interface org.matsim.core.mobsim.qsim.messagequeueengine.MessageQueueEngine
2024-12-19T02:05:35,408  INFO MobsimListenerManager:54   assigned class org.matsim.core.mobsim.framework.listeners.MobsimListener to interface org.matsim.core.mobsim.framework.listeners.MobsimBeforeSimStepListener
2024-12-19T02:05:35,408  INFO QSimProvider:155 Added MobsimListener class org.matsim.core.mobsim.qsim.messagequeueengine.MessageQueueEngine
2024-12-19T02:05:36,483  INFO AbstractQNetsimEngine:426 Assigned 27759 nodes and 64052 links to QSimEngineRunner #0
2024-12-19T02:05:37,074  INFO AbstractQNetsimEngine:364 SIMULATION (QNetsimEngine) AT 07:30:00 : #links=0 #nodes=0
2024-12-19T02:05:37,074  INFO QSim:566 SIMULATION (NEW QSim) AT 07:30:00 : #Veh=873930 lost=0 simT=0.0s realT=1s; (s/r): 0.0
2024-12-19T02:05:40,674  INFO AbstractQNetsimEngine:364 SIMULATION (QNetsimEngine) AT 08:00:00 : #links=0 #nodes=0
2024-12-19T02:05:40,674  INFO QSim:566 SIMULATION (NEW QSim) AT 08:00:00 : #Veh=39736 lost=0 simT=1800.0s realT=5s; (s/r): 360.0
2024-12-19T02:05:42,975  INFO AbstractController$9:237 ### ITERATION 1 fires after mobsim event
2024-12-19T02:05:42,976  INFO ControlerListenerManagerImpl:269 calling notifyAfterMobsim on org.matsim.analysis.LegTimesControlerListener with priority 0.0
2024-12-19T02:05:42,975  INFO Gbl:196 Thread performance: Thread=class org.matsim.core.events.SimStepParallelEventsManagerImpl$ProcessEventsRunnable0  cpu-time=5.121930905sec
2024-12-19T02:05:42,976  INFO LegTimesControlerListener:51 [1] average trip (probably: leg) duration is: 0 seconds = 00:00:00
2024-12-19T02:05:42,977  INFO ControlerListenerManagerImpl:269 calling notifyAfterMobsim on org.matsim.core.events.MobsimScopeEventHandling with priority 0.0
2024-12-19T02:05:42,977  INFO ControlerListenerManagerImpl:269 calling notifyAfterMobsim on org.matsim.core.scoring.EventsToActivities$1 with priority 0.0
2024-12-19T02:05:43,370  INFO ControlerListenerManagerImpl:272 [it.1] all ControlerAfterMobsimListeners called.
2024-12-19T02:05:43,371  INFO AbstractController$4:162 ### ITERATION 1 fires scoring event
2024-12-19T02:05:43,371  INFO ControlerListenerManagerImpl:197 calling notifyScoring on org.matsim.core.scoring.PlansScoringImpl with priority 0.0
2024-12-19T02:05:43,676  INFO NewScoreAssignerImpl:58 it: 1 msaStart: null
2024-12-19T02:05:43,906  INFO ControlerListenerManagerImpl:209 [it.1] all ControlerScoringListeners called.
2024-12-19T02:05:43,906  INFO AbstractController$5:170 ### ITERATION 1 fires iteration end event
2024-12-19T02:05:43,906  INFO ControlerListenerManagerImpl:172 calling notifyIterationEnds on org.matsim.core.controler.corelisteners.EventsHandlingImpl with priority 0.0
2024-12-19T02:05:43,907  INFO EventsManagerImpl:159 removing Event-Handler: org.matsim.core.events.algorithms.EventWriterXML
2024-12-19T02:05:43,907  INFO EventsManagerImpl:159 removing Event-Handler: org.matsim.core.events.algorithms.EventWriterXML
2024-12-19T02:05:43,907  INFO ControlerListenerManagerImpl:172 calling notifyIterationEnds on org.matsim.core.scoring.PlansScoringImpl with priority 0.0
2024-12-19T02:05:44,093  INFO ControlerListenerManagerImpl:180 calling notifyIterationEnds on org.matsim.counts.CountsControlerListener with priority 0.0
2024-12-19T02:05:44,093  INFO ControlerListenerManagerImpl:180 calling notifyIterationEnds on org.matsim.analysis.ModeStatsControlerListener with priority 0.0
2024-12-19T02:05:44,229  INFO ModeStatsControlerListener:133 Mode shares over all 0.0 trips found. MainModeIdentifier: class org.matsim.core.router.DefaultAnalysisMainModeIdentifier
2024-12-19T02:05:44,321  INFO ControlerListenerManagerImpl:180 calling notifyIterationEnds on org.matsim.analysis.ScoreStatsControlerListener with priority 0.0
2024-12-19T02:05:44,454  INFO ScoreStatsControlerListener:154 -- avg. score of the executed plan of each agent: 101.51142267025647
2024-12-19T02:05:44,454  INFO ScoreStatsControlerListener:155 -- avg. score of the worst plan of each agent: 101.46646974564925
2024-12-19T02:05:44,454  INFO ScoreStatsControlerListener:156 -- avg. of the avg. plan score per agent: 101.51441267454477
2024-12-19T02:05:44,455  INFO ScoreStatsControlerListener:157 -- avg. score of the best plan of each agent: 101.56235560340271
2024-12-19T02:05:44,669  INFO ControlerListenerManagerImpl:180 calling notifyIterationEnds on org.matsim.analysis.IterationTravelStatsControlerListener with priority 0.0
2024-12-19T02:05:44,721  INFO TravelDistanceStats:115 -- average leg distance per plan (executed plans only): 0.0 meters
2024-12-19T02:05:44,721  INFO TravelDistanceStats:116 average leg distance per Person (executed plans only): 0.0 meters (statistic on all 0 legs which have a finite distance)
2024-12-19T02:05:44,721  INFO TravelDistanceStats:117 -- average trip distance per plan (executed plans only): 0.0 meters
2024-12-19T02:05:44,721  INFO TravelDistanceStats:118 average trip distance per Person (executed plans only): 0.0 meters (statistic on all 0 trips which have a finite distance)
2024-12-19T02:05:44,721  INFO TravelDistanceStats:119 (TravelDistanceStats takes an average over all legs where the simulation reports travelled (network) distances
2024-12-19T02:05:44,722  INFO TravelDistanceStats:120 (and teleported legs whose route contains a distance.)
2024-12-19T02:05:45,034  INFO ActivityWriter:39 Writing all Activities to activitiescsv
2024-12-19T02:05:49,199  INFO ActivityWriter:59 ...done
2024-12-19T02:05:49,199  INFO ControlerListenerManagerImpl:180 calling notifyIterationEnds on org.matsim.analysis.LegHistogramListener with priority 0.0
2024-12-19T02:05:49,201  INFO LegHistogramListener:73 number of legs:	0	100%
2024-12-19T02:05:49,252  INFO ControlerListenerManagerImpl:180 calling notifyIterationEnds on org.matsim.analysis.LinkStatsControlerListener with priority 0.0
2024-12-19T02:05:49,252  INFO ControlerListenerManagerImpl:184 [it.1] all ControlerIterationEndsListeners called.
2024-12-19T02:05:49,341  INFO AbstractController:184 ### ITERATION 1 ENDS
2024-12-19T02:05:49,341  INFO AbstractController:185 ###################################################
2024-12-19T02:05:49,341  INFO MatsimRuntimeModifications:80 S H U T D O W N   ---   start shutdown.
2024-12-19T02:05:49,341  INFO ControlerListenerManagerImpl:128 calling notifyShutdown on org.matsim.core.controler.corelisteners.EventsHandlingImpl with priority 0.0
2024-12-19T02:05:49,341  INFO ControlerListenerManagerImpl:128 calling notifyShutdown on org.matsim.core.controler.corelisteners.DumpDataAtEndImpl with priority 0.0
2024-12-19T02:05:49,722  INFO Counter:70 [PopulationWriter] dumped person # 1
2024-12-19T02:05:49,722  INFO Counter:70 [PopulationWriter] dumped person # 2
2024-12-19T02:05:49,722  INFO Counter:70 [PopulationWriter] dumped person # 4
2024-12-19T02:05:49,722  INFO Counter:70 [PopulationWriter] dumped person # 8
2024-12-19T02:05:49,722  INFO Counter:70 [PopulationWriter] dumped person # 16
2024-12-19T02:05:49,722  INFO Counter:70 [PopulationWriter] dumped person # 32
2024-12-19T02:05:49,722  INFO Counter:70 [PopulationWriter] dumped person # 64
2024-12-19T02:05:49,722  INFO Counter:70 [PopulationWriter] dumped person # 128
2024-12-19T02:05:49,723  INFO Counter:70 [PopulationWriter] dumped person # 256
2024-12-19T02:05:49,723  INFO Counter:70 [PopulationWriter] dumped person # 512
2024-12-19T02:05:49,722  INFO Counter:70 [ParallelPopulationWriterV6] dumped person # 1
2024-12-19T02:05:49,724  INFO Counter:70 [ParallelPopulationWriterV6] dumped person # 2
2024-12-19T02:05:49,724  INFO Counter:70 [ParallelPopulationWriterV6] dumped person # 4
2024-12-19T02:05:49,724  INFO Counter:70 [ParallelPopulationWriterV6] dumped person # 8
2024-12-19T02:05:49,724  INFO Counter:70 [ParallelPopulationWriterV6] dumped person # 16
2024-12-19T02:05:49,725  INFO Counter:70 [PopulationWriter] dumped person # 1024
2024-12-19T02:05:49,725  INFO Counter:70 [ParallelPopulationWriterV6] dumped person # 32
2024-12-19T02:05:49,725  INFO Counter:70 [ParallelPopulationWriterV6] dumped person # 64
2024-12-19T02:05:49,726  INFO Counter:70 [ParallelPopulationWriterV6] dumped person # 128
2024-12-19T02:05:49,727  INFO Counter:70 [ParallelPopulationWriterV6] dumped person # 256
2024-12-19T02:05:49,729  INFO Counter:70 [ParallelPopulationWriterV6] dumped person # 512
2024-12-19T02:05:49,733  INFO Counter:70 [ParallelPopulationWriterV6] dumped person # 1024
2024-12-19T02:05:49,733  INFO Counter:70 [PopulationWriter] dumped person # 2048
2024-12-19T02:05:49,740  INFO Counter:70 [ParallelPopulationWriterV6] dumped person # 2048
2024-12-19T02:05:49,746  INFO Counter:70 [PopulationWriter] dumped person # 4096
2024-12-19T02:05:49,752  INFO Counter:70 [ParallelPopulationWriterV6] dumped person # 4096
2024-12-19T02:05:49,772  INFO Counter:70 [PopulationWriter] dumped person # 8192
2024-12-19T02:05:49,778  INFO Counter:70 [ParallelPopulationWriterV6] dumped person # 8192
2024-12-19T02:05:49,824  INFO Counter:70 [PopulationWriter] dumped person # 16384
2024-12-19T02:05:49,831  INFO Counter:70 [ParallelPopulationWriterV6] dumped person # 16384
2024-12-19T02:05:49,939  INFO Counter:70 [PopulationWriter] dumped person # 32768
2024-12-19T02:05:49,945  INFO Counter:70 [ParallelPopulationWriterV6] dumped person # 32768
2024-12-19T02:05:50,120  INFO Counter:70 [PopulationWriter] dumped person # 65536
2024-12-19T02:05:50,125  INFO Counter:70 [ParallelPopulationWriterV6] dumped person # 65536
2024-12-19T02:05:50,480  INFO Counter:70 [PopulationWriter] dumped person # 131072
2024-12-19T02:05:50,485  INFO Counter:70 [ParallelPopulationWriterV6] dumped person # 131072
2024-12-19T02:05:51,205  INFO Counter:70 [PopulationWriter] dumped person # 262144
2024-12-19T02:05:51,210  INFO Counter:70 [ParallelPopulationWriterV6] dumped person # 262144
2024-12-19T02:05:52,761  INFO Counter:70 [PopulationWriter] dumped person # 524288
2024-12-19T02:05:52,767  INFO Counter:70 [ParallelPopulationWriterV6] dumped person # 524288
2024-12-19T02:05:54,820  INFO Counter:75 [ParallelPopulationWriterV6] dumped person # 873965
2024-12-19T02:05:54,820  INFO PopulationWriter:150 Population written to: scenarios/equil/output/run_20241219_020457/output_plans.xml.gz
2024-12-19T02:05:54,820  INFO Counter:75 [PopulationWriter] dumped person # 873965
2024-12-19T02:05:54,821  INFO NetworkWriter:70 Writing network to file: scenarios/equil/output/run_20241219_020457/output_network.xml.gz...
2024-12-19T02:05:55,520  INFO NetworkWriter:73 done.
2024-12-19T02:05:55,525  INFO Config:550 setting context to [file:/home/opc/matsim-example-project/]
2024-12-19T02:05:55,527  INFO Config:550 setting context to [file:/home/opc/matsim-example-project/]
2024-12-19T02:05:55,533  INFO Config:550 setting context to [file:/home/opc/matsim-example-project/]
2024-12-19T02:05:55,534  INFO Config:550 setting context to [file:/home/opc/matsim-example-project/]
2024-12-19T02:05:55,535  INFO Config:550 setting context to [file:/home/opc/matsim-example-project/]
2024-12-19T02:05:55,537  INFO Config:550 setting context to [file:/home/opc/matsim-example-project/]
2024-12-19T02:05:55,538  INFO Config:550 setting context to [file:/home/opc/matsim-example-project/]
2024-12-19T02:05:55,539  INFO Config:550 setting context to [file:/home/opc/matsim-example-project/]
2024-12-19T02:05:55,540  INFO Config:550 setting context to [file:/home/opc/matsim-example-project/]
2024-12-19T02:05:55,541  INFO Config:550 setting context to [file:/home/opc/matsim-example-project/]
2024-12-19T02:05:55,542  INFO Config:550 setting context to [file:/home/opc/matsim-example-project/]
2024-12-19T02:05:55,543  INFO Config:550 setting context to [file:/home/opc/matsim-example-project/]
2024-12-19T02:05:55,544  INFO Config:550 setting context to [file:/home/opc/matsim-example-project/]
2024-12-19T02:05:55,545  INFO Config:550 setting context to [file:/home/opc/matsim-example-project/]
2024-12-19T02:05:55,550  INFO Config:550 setting context to [file:/home/opc/matsim-example-project/]
2024-12-19T02:05:55,552  INFO Config:550 setting context to [file:/home/opc/matsim-example-project/]
2024-12-19T02:05:55,553  INFO Config:550 setting context to [file:/home/opc/matsim-example-project/]
2024-12-19T02:05:55,554  INFO Config:550 setting context to [file:/home/opc/matsim-example-project/]
2024-12-19T02:05:55,555  INFO Config:550 setting context to [file:/home/opc/matsim-example-project/]
2024-12-19T02:05:55,559  INFO Config:550 setting context to [file:/home/opc/matsim-example-project/]
2024-12-19T02:05:55,560  INFO Config:550 setting context to [file:/home/opc/matsim-example-project/]
2024-12-19T02:05:55,561  INFO Config:550 setting context to [file:/home/opc/matsim-example-project/]
2024-12-19T02:05:55,562  INFO Config:550 setting context to [file:/home/opc/matsim-example-project/]
2024-12-19T02:05:55,563  INFO Config:550 setting context to [file:/home/opc/matsim-example-project/]
2024-12-19T02:05:55,564  INFO Config:550 setting context to [file:/home/opc/matsim-example-project/]
2024-12-19T02:05:55,564  INFO Config:550 setting context to [file:/home/opc/matsim-example-project/]
2024-12-19T02:05:55,567  INFO MatsimVehicleWriter:49 about to write vehicles to: scenarios/equil/output/run_20241219_020457/output_vehicles.xml.gz
2024-12-19T02:05:55,568  INFO VehicleWriterV2:64 about to write vehicles to: scenarios/equil/output/run_20241219_020457/output_vehicles.xml.gz
2024-12-19T02:05:56,463  INFO VehicleUtils:395 adding scenario element for allvehicles container
2024-12-19T02:05:56,464  INFO HouseholdsWriterV10:66 about to write  households to: scenarios/equil/output/run_20241219_020457/output_households.xml.gz
2024-12-19T02:05:56,464  INFO Counter:75 [HouseholdsWriter] wrote household # 0
2024-12-19T02:05:56,468  INFO CountsWriterV2:45 Write Counts to scenarios/equil/output/run_20241219_020457/output_counts.xml.gz
2024-12-19T02:05:56,481  INFO ControlerListenerManagerImpl:135 calling notifyShutdown on org.matsim.analysis.ScoreStatsControlerListener with priority 0.0
2024-12-19T02:05:56,482  INFO ControlerListenerManagerImpl:135 calling notifyShutdown on org.matsim.analysis.IterationTravelStatsControlerListener with priority 0.0
2024-12-19T02:05:56,482  INFO PersonWriter:36 Writing all Persons to personscsv
2024-12-19T02:05:57,605  INFO PersonWriter:54 ...done
2024-12-19T02:05:57,605  INFO ControlerListenerManagerImpl:135 calling notifyShutdown on org.matsim.analysis.LinkStatsControlerListener with priority 0.0
2024-12-19T02:05:58,396  INFO ControlerListenerManagerImpl:138 all ControlerShutdownListeners called.
2024-12-19T02:05:58,396  INFO MatsimRuntimeModifications:103 S H U T D O W N   ---   shutdown completed.
2024-12-19T02:05:58,396  INFO OutputDirectoryLogging:172 closing the logfile, i.e. messages sent to the logger after this message are not written to the logfile.
