2024-12-19T07:50:38,240  INFO Gbl:64 JVM: 17.0.13; Red Hat, Inc.; mixed mode, sharing; 64-bit
2024-12-19T07:50:38,240  INFO Gbl:68 OS: Linux; 5.15.0-301.163.5.2.el8uek.x86_64; amd64
2024-12-19T07:50:38,241  INFO Gbl:71 CPU cores: 8
2024-12-19T07:50:38,243  INFO Gbl:72 max. Memory: 16008.0MB (16785604608B)
2024-12-19T07:50:38,243  INFO Gbl:114 MATSim-Build: ree04702ba7fc026b6bdf5a6ea52a749cf0c790e1 (2024-04-13 15:48:32)
2024-12-19T07:50:38,244  INFO Gbl:76 Command: org.matsim.project.RunMatsim
2024-12-19T07:50:38,247  INFO MemoryObserver:42 used RAM: 190 MB  free: 81 MB  total: 272 MB
2024-12-19T07:50:38,247  INFO ControlerListenerManagerImpl:112 calling notifyStartup on org.matsim.core.controler.ControlerDefaultsModule$1 with priority 0.0
2024-12-19T07:50:38,287  INFO ControlerListenerManagerImpl:112 calling notifyStartup on org.matsim.guice.DependencyGraphControlerListener with priority 0.0
2024-12-19T07:50:38,365  INFO ControlerListenerManagerImpl:112 calling notifyStartup on org.matsim.counts.CountsControlerListener with priority 0.0
2024-12-19T07:50:38,365  INFO ControlerListenerManagerImpl:112 calling notifyStartup on org.matsim.analysis.ModeStatsControlerListener with priority 0.0
2024-12-19T07:50:38,366  INFO ControlerListenerManagerImpl:112 calling notifyStartup on org.matsim.analysis.ScoreStatsControlerListener with priority 0.0
2024-12-19T07:50:38,366  INFO ControlerListenerManagerImpl:115 all ControlerStartupListeners called.
2024-12-19T07:50:38,367  INFO ControlerUtils:79 config dump before iterations start
2024-12-19T07:50:38,380  INFO ControlerUtils:83 

<?xml version="1.0" encoding="UTF-8"?>
<!DOCTYPE config SYSTEM "http://www.matsim.org/files/dtd/config_v2.dtd">
<config>
	<module name="changeMode" >
		<!-- Defines whether car availability is considered be considered or not. An agent has no car only if it has no license, or never access to a car. Default: true -->
		<param name="ignoreCarAvailability" value="true" />
		<!-- Defines the mode switch behavior. Possible values [fromAllModesToSpecifiedModes, fromSpecifiedModesToSpecifiedModes] Default: fromSpecifiedModesToSpecifiedModes. -->
		<param name="modeSwitchBehavior" value="fromSpecifiedModesToSpecifiedModes" />
		<!-- Defines all the modes available, including chain-based modes, seperated by commas -->
		<param name="modes" value="car,pt" />
	</module>
	<module name="controller" >
		<!-- Defines what should be done with the ITERS directory when a simulation finished successfully -->
		<param name="cleanItersAtEnd" value="keep" />
		<!-- Compression algorithm to use when writing out data to files. Possible values: [none, gzip, lz4, zst] -->
		<param name="compressionType" value="gzip" />
		<!-- Sets the interval in which graphs are generated. Default is 1. If set to 0, no graphs are generated. The generation of graphs usually takes a small amount of time that does not have any weight in big simulations, but add a significant overhead in smaller runs or in test cases where the graphical output is not even requested. -->
		<param name="createGraphsInterval" value="1" />
		<!-- Defines when the scoring functions for the population are created. Default=IterationStarts. Possible values: [IterationStarts, BeforeMobsim] -->
		<param name="createScoringFunctionType" value="IterationStarts" />
		<!-- true if at the end of a run, plans, network, config etc should be dumped to a file -->
		<param name="dumpDataAtEnd" value="true" />
		<!-- Default=false. If enabled, the router takes travel times needed for turning moves into account. Can only be used with Dijkstra routing. Cannot be used when TravelTimeCalculator.separateModes is enabled. -->
		<param name="enableLinkToLinkRouting" value="false" />
		<!-- Default=xml; Specifies the file format for writing events. Currently supported: [xml, pb, json]
		Multiple values can be specified separated by commas (','). -->
		<param name="eventsFileFormat" value="xml" />
		<!-- Default=0. First Iteration of a simulation. -->
		<param name="firstIteration" value="0" />
		<!-- Default=1000. Last Iteration of a simulation. -->
		<param name="lastIteration" value="1" />
		<!-- Defines the interval for printing memory usage to the log in [seconds]. Must be positive. Defaults to 60. -->
		<param name="memoryObserverInterval" value="60" />
		<!-- Defines which mobility simulation will be used. Currently supported: [qsim, JDEQSim, hermes]
		Depending on the chosen mobsim, you'll have to add additional config modules to configure the corresponding mobsim.
		For 'qsim', add a module 'qsim' to the config. -->
		<param name="mobsim" value="qsim" />
		<param name="outputDirectory" value="scenarios/equil/output/run_20241219_075035" />
		<!-- Possible values: failIfDirectoryExists,overwriteExistingFiles,deleteDirectoryIfExists -->
		<param name="overwriteFiles" value="deleteDirectoryIfExists" />
		<!-- The type of routing (least cost path) algorithm used, may have the values: [Dijkstra, AStarLandmarks, SpeedyALT] -->
		<param name="routingAlgorithmType" value="Dijkstra" />
		<!-- An identifier for the current run which is used as prefix for output files and mentioned in output xml files etc. -->
		<param name="runId" value="null" />
		<!-- Comma-separated list of visualizer output file formats. `transims' and `otfvis'. -->
		<param name="snapshotFormat" value="" />
		<!-- iterationNumber % writeEventsInterval == 0 defines in which iterations events are written to a file. `0' disables events writing completely. -->
		<param name="writeEventsInterval" value="50" />
		<!-- iterationNumber % writePlansInterval == 0 defines (hopefully) in which iterations plans are written to a file. `0' disables plans writing completely.  Some plans in early iterations are always written -->
		<param name="writePlansInterval" value="50" />
		<!-- iterationNumber % writeSnapshotsInterval == 0 defines in which iterations snapshots are written to a file. `0' disables snapshots writing completely -->
		<param name="writeSnapshotsInterval" value="1" />
		<!-- iterationNumber % writeEventsInterval == 0 defines in which iterations trips CSV are written to a file. `0' disables trips writing completely. -->
		<param name="writeTripsInterval" value="50" />
	</module>
	<module name="counts" >
		<!-- Transport modes that will be respected for the counts comparison. 'car' is default, which includes also bussed from the pt simulation module. Use this parameter in combination with 'filterModes' = true! -->
		<param name="analyzedModes" value="car" />
		<!-- Specifies over how many iterations the link volumes should be averaged that are used for the counts comparison. Use 1 or 0 to only use the link volumes of a single iteration. This values cannot be larger than the value specified for writeCountsInterval -->
		<param name="averageCountsOverIterations" value="5" />
		<!-- factor by which to re-scale the simulated values.  necessary when simulation runs with something different from 100%.  needs to be adapted manually -->
		<param name="countsScaleFactor" value="1.0" />
		<!-- distance to distanceFilterCenterNode to include counting stations. The unit of distance is the Euclidean distance implied by the coordinate system -->
		<param name="distanceFilter" value="null" />
		<!-- node id for center node of distance filter -->
		<param name="distanceFilterCenterNode" value="null" />
		<!-- If true, link counts from legs performed on modes not included in the 'analyzedModes' parameter are ignored. -->
		<param name="filterModes" value="false" />
		<!-- The Coordinates Reference System in which the coordinates are expressed in the input file. At import, the coordinates will be converted to the coordinate system defined in "global", and willbe converted back at export. If not specified, no conversion happens. -->
		<param name="inputCRS" value="null" />
		<!-- input file name to counts package -->
		<param name="inputCountsFile" value="null" />
		<!-- possible values: `html', `txt', `all' -->
		<param name="outputformat" value="txt" />
		<!-- Specifies how often the counts comparison should be calculated and written. -->
		<param name="writeCountsInterval" value="10" />
	</module>
	<module name="eventsManager" >
		<!-- Estimated number of events during mobsim run. An optional optimization hint for the framework. -->
		<param name="estimatedNumberOfEvents" value="null" />
		<!-- Size of the events Queue. Increase for very large scenarios -->
		<param name="eventsQueueSize" value="131072" />
		<!-- Number of threads for parallel events handler. _null_ means the framework decides by itself. 0 is currently not possible. -->
		<param name="numberOfThreads" value="null" />
		<!-- If enabled, each event handler is assigned to its own thread. Note that enabling this feature disabled the numberOfThreads option! This feature is still experimental! -->
		<param name="oneThreadPerHandler" value="false" />
		<!-- If enabled, it is ensured that all events that are created during a time step of the mobility simulation are processed before the next time step is simulated. E.g. neccessary when within-day replanning is used. -->
		<param name="synchronizeOnSimSteps" value="true" />
	</module>
	<module name="facilities" >
		<!-- This defines how facilities should be created. Possible values: none fromFile setInScenario onePerActivityLinkInPlansFile onePerActivityLinkInPlansFileExceptWhenCoordinatesAreGiven onePerActivityLocationInPlansFile  -->
		<param name="facilitiesSource" value="none" />
		<!-- A prefix to be used for auto-generated IDs. -->
		<param name="idPrefix" value="f_auto_" />
		<!-- The Coordinates Reference System in which the coordinates are expressed in the input file. At import, the coordinates will be converted to the coordinate system defined in "global", and willbe converted back at export. If not specified, no conversion happens. -->
		<param name="inputCRS" value="null" />
		<param name="inputFacilitiesFile" value="null" />
		<param name="inputFacilityAttributesFile" value="null" />
		<param name="insistingOnUsingDeprecatedFacilitiesAttributeFile" value="false" />
	</module>
	<module name="global" >
		<param name="coordinateSystem" value="EPSG:32610" />
		<param name="defaultDelimiter" value=";" />
		<param name="insistingOnDeprecatedConfigVersion" value="true" />
		<!-- "global" number of threads.  This number is used, e.g., for replanning, but NOT in QSim.  This can typically be set to as many cores as you have available, or possibly even slightly more. -->
		<param name="numberOfThreads" value="2" />
		<param name="randomSeed" value="4711" />
	</module>
	<module name="hermes" >
		<!-- Simulation End Time -->
		<param name="endTime" value="30:00:00" />
		<param name="flowCapacityFactor" value="1.0" />
		<param name="mainMode" value="car" />
		<param name="storageCapacityFactor" value="1.0" />
		<!-- time in seconds.  Time after which the frontmost vehicle on a link is called `stuck' if it does not move. Set to Integer.MAX_VALUE to disable this behavior -->
		<param name="stuckTime" value="10" />
		<!-- treats PT as deterministic. PT vehicles will run with a steady speed. Should be used with separate network layers for PT and other network modes. -->
		<param name="useDeterministicPt" value="false" />
	</module>
	<module name="households" >
		<param name="inputFile" value="null" />
		<param name="inputHouseholdAttributesFile" value="null" />
		<param name="insistingOnUsingDeprecatedHouseholdsAttributeFile" value="false" />
	</module>
	<module name="jdeqsim" >
		<param name="carSize" value="7.5" />
		<param name="endTime" value="undefined" />
		<param name="flowCapacityFactor" value="1.0" />
		<param name="gapTravelSpeed" value="15.0" />
		<param name="minimumInFlowCapacity" value="1800.0" />
		<param name="squeezeTime" value="1800.0" />
		<param name="storageCapacityFactor" value="1.0" />
	</module>
	<module name="linkStats" >
		<!-- Specifies over how many iterations the link volumes should be averaged that are used for the link statistics. Use 1 or 0 to only use the link volumes of a single iteration. This values cannot be larger than the value specified for writeLinkStatsInterval -->
		<param name="averageLinkStatsOverIterations" value="5" />
		<!-- Specifies how often the link stats should be calculated and written. Use 0 to disable the generation of link stats. -->
		<param name="writeLinkStatsInterval" value="50" />
	</module>
	<module name="network" >
		<!-- The Coordinates Reference System in which the coordinates are expressed in the input file. At import, the coordinates will be converted to the coordinate system defined in "global", and willbe converted back at export. If not specified, no conversion happens. -->
		<param name="inputCRS" value="null" />
		<param name="inputChangeEventsFile" value="null" />
		<param name="inputNetworkFile" value="output/sf_network.xml.gz" />
		<param name="laneDefinitionsFile" value="null" />
		<param name="timeVariantNetwork" value="false" />
	</module>
	<module name="planInheritance" >
		<!-- Specifies whether or not PlanInheritance Information should be tracked. -->
		<param name="enabled" value="false" />
	</module>
	<module name="plans" >
		<!-- String: minOfDurationAndEndTime tryEndTimeThenDuration endTimeOnly. Anything besides minOfDurationAndEndTime will internally use a different (simpler) version of the TimeAllocationMutator. -->
		<param name="activityDurationInterpretation" value="tryEndTimeThenDuration" />
		<!-- Possible values: reject,useMainModeIdentifier -->
		<param name="handlingOfPlansWithoutRoutingMode" value="useMainModeIdentifier" />
		<!-- The Coordinates Reference System in which the coordinates are expressed in the input file. At import, the coordinates will be converted to the coordinate system defined in "global", and willbe converted back at export. If not specified, no conversion happens. -->
		<param name="inputCRS" value="null" />
		<param name="inputPersonAttributesFile" value="null" />
		<param name="inputPlansFile" value="output/synthetic_population.xml" />
		<param name="insistingOnUsingDeprecatedPersonAttributeFile" value="false" />
		<!-- Defines how routes are stored in memory. Currently supported: LinkNetworkRoute, MediumCompressedNetworkRoute, HeavyCompressedNetworkRoute. -->
		<param name="networkRouteType" value="LinkNetworkRoute" />
		<!-- (not tested) will remove plan attributes that are presumably not used, such as activityStartTime. default=false. Use with Caution! -->
		<param name="removingUnnecessaryPlanAttributes" value="false" />
		<!-- Defines how departure times are interpreted in rerouting applications. If set to 'ignoreDelays', the departure time of a trip when routing along a plan will always be the nominal (plan-based) activity end time. If set to 'shiftActivityEndTimes', routing along a plan will accumulate travel times and shift activity end times if necessary -->
		<param name="tripDurationHandling" value="ignoreDelays" />
	</module>
	<module name="qsim" >
		<param name="endTime" value="30:00:00" />
		<!-- If set to withLinkAttributes snapshots will only be generated for links which include generateSnapshotForLink as attribute key. Default is no filtering. -->
		<param name="filterSnapshots" value="no" />
		<param name="flowCapacityFactor" value="1.0" />
		<!-- decides if waiting vehicles enter the network after or before the already driving vehicles were moved. Default: false -->
		<param name="insertingWaitingVehiclesBeforeDrivingVehicles" value="true" />
		<!-- If link dynamics is set as SeepageQ, set to false if all seep modes should perform seepage. Default is true (better option). -->
		<param name="isRestrictingSeepage" value="true" />
		<!-- If link dynamics is set as SeepageQ, set to true if seep mode do not consumes any space on the link. Default is false. -->
		<param name="isSeepModeStorageFree" value="false" />
		<!-- default: FIFO; options: FIFO PassingQ SeepageQ -->
		<param name="linkDynamics" value="FIFO" />
		<!-- The (initial) width of the links of the network. Use positive floating point values. This is used only for visualisation. -->
		<param name="linkWidth" value="30.0" />
		<!-- [comma-separated list] Defines which modes are congested modes. Technically, these are the modes that the departure handler of the netsimengine handles.  Effective cell size, effective lane width, flow capacity factor, and storage capacity factor need to be set with diligence.  Need to be vehicular modes to make sense. -->
		<param name="mainMode" value="car" />
		<!-- Shortens a link in the visualization, i.e. its start and end point are moved into towards the center. Does not affect traffic flow.  -->
		<param name="nodeOffset" value="0.0" />
		<!-- Number of threads used for the QSim.  Note that this setting is independent from the "global" threads setting.  In contrast to earlier versions, the non-parallel special version is no longer there. -->
		<param name="numberOfThreads" value="1" />
		<!-- Boolean. `true': stuck vehicles are removed, aborting the plan; `false': stuck vehicles are forced into the next link. `false' is probably the better choice. -->
		<param name="removeStuckVehicles" value="false" />
		<!-- If link dynamics is set as SeepageQ, set a seep mode. Default is bike. -->
		<param name="seepMode" value="bike" />
		<!-- Possible values: minOfEndtimeAndMobsimFinished,onlyUseEndtime -->
		<param name="simEndtimeInterpretation" value="null" />
		<!-- Options: maxOfStarttimeAndEarliestActivityEnd onlyUseStarttime  -->
		<param name="simStarttimeInterpretation" value="maxOfStarttimeAndEarliestActivityEnd" />
		<!-- snapshotStyle. One of: equiDist queue withHoles withHolesAndShowHoles kinematicWaves  -->
		<param name="snapshotStyle" value="queue" />
		<param name="snapshotperiod" value="00:30:00" />
		<param name="startTime" value="00:00:00" />
		<param name="storageCapacityFactor" value="1.0" />
		<!-- time in seconds.  Time after which the frontmost vehicle on a link is called `stuck' if it does not move. -->
		<param name="stuckTime" value="10.0" />
		<param name="timeStepSize" value="00:00:01" />
		<!-- options: queue withHoles kinematicWaves  -->
		<param name="trafficDynamics" value="queue" />
		<!-- Set this parameter to true if lanes should be used, false if not. -->
		<param name="useLanes" value="true" />
		<!-- If a route does not reference a vehicle, agents will use the vehicle with the same id as their own. -->
		<param name="usePersonIdForMissingVehicleId" value="false" />
		<!-- If false, the qsim accumulates fractional flows up to one flow unit in every time step.  If true, flows are updated only if an agent wants to enter the link or an agent is added to buffer. Default is true. -->
		<param name="usingFastCapacityUpdate" value="true" />
		<!-- Defines what happens if an agent wants to depart, but the specified vehicle is not available. One of: teleport wait exception  -->
		<param name="vehicleBehavior" value="teleport" />
		<!-- If vehicles should all be the same default vehicle, or come from the vehicles file, or something else.  Possible values:  defaultVehicle modeVehicleTypesFromVehiclesData fromVehiclesData -->
		<param name="vehiclesSource" value="defaultVehicle" />
	</module>
	<module name="replanning" >
		<!-- the external executable will be called with a config file as argument.  This is the pathname to a possible skeleton config, to which additional information will be added.  Can be null. -->
		<param name="ExternalExeConfigTemplate" value="null" />
		<!-- time out value (in seconds) after which matsim will consider the external strategy as failed -->
		<param name="ExternalExeTimeOut" value="3600" />
		<!-- root directory for temporary files generated by the external executable. Provided as a service; I don't think this is used by MATSim. -->
		<param name="ExternalExeTmpFileRootDir" value="null" />
		<!-- fraction of iterations where innovative strategies are switched off.  Something like 0.8 should be good.  E.g. if you run from iteration 400 to iteration 500, innovation is switched off at iteration 480 -->
		<param name="fractionOfIterationsToDisableInnovation" value="Infinity" />
		<!-- maximum number of plans per agent.  ``0'' means ``infinity''.  Currently (2010), ``5'' is a good number -->
		<param name="maxAgentPlanMemorySize" value="5" />
		<!-- strategyName of PlanSelector for plans removal.  Possible defaults: WorstPlanSelector SelectRandom SelectExpBetaForRemoval ChangeExpBetaForRemoval PathSizeLogitSelectorForRemoval . The current default, WorstPlanSelector is not a good choice from a discrete choice theoretical perspective. Alternatives, however, have not been systematically tested. kai, feb'12 -->
		<param name="planSelectorForRemoval" value="WorstPlanForRemovalSelectorWithConflicts" />
		<parameterset type="strategysettings" >
			<!-- iteration after which strategy will be disabled.  most useful for ``innovative'' strategies (new routes, new times, ...). Normally, better use fractionOfIterationsToDisableInnovation -->
			<param name="disableAfterIteration" value="-1" />
			<!-- path to external executable (if applicable) -->
			<param name="executionPath" value="null" />
			<!-- strategyName of strategy.  Possible default names: SelectRandom BestScore KeepLastSelected ChangeExpBeta SelectExpBeta SelectPathSizeLogit      (selectors), ReRouteTimeAllocationMutatorTimeAllocationMutator_ReRouteChangeSingleTripModeChangeTripModeSubtourModeChoice (innovative strategies). -->
			<param name="strategyName" value="BestScore" />
			<!-- subpopulation to which the strategy applies. "null" refers to the default population, that is, the set of persons for which no explicit subpopulation is defined (ie no subpopulation attribute) -->
			<param name="subpopulation" value="null" />
			<!-- weight of a strategy: for each agent, a strategy will be selected with a probability proportional to its weight -->
			<param name="weight" value="0.9" />
		</parameterset>
		<parameterset type="strategysettings" >
			<param name="disableAfterIteration" value="-1" />
			<param name="executionPath" value="null" />
			<param name="strategyName" value="ReRoute" />
			<param name="subpopulation" value="null" />
			<param name="weight" value="0.1" />
		</parameterset>
		<parameterset type="strategysettings" >
			<param name="disableAfterIteration" value="-1" />
			<param name="executionPath" value="null" />
			<param name="strategyName" value="TimeAllocationMutator" />
			<param name="subpopulation" value="null" />
			<param name="weight" value="0.1" />
		</parameterset>
	</module>
	<module name="replanningAnnealer" >
		<!-- Activate the scaling of replanning modules using an annealing approach rather than fixed rates. -->
		<param name="activateAnnealingModule" value="false" />
	</module>
	<module name="routing" >
		<!-- Defines how access and egress to main mode is simulated. Either of [none, accessEgressModeToLink, walkConstantTimeToLink, accessEgressModeToLinkPlusTimeConstant], Current default=none which means no access or egress trips are simulated. -->
		<param name="accessEgressType" value="none" />
		<!-- Some typical teleportation routing params are set by default, such as for walk and bike.  Setting this switch to "true" will clear them.  Note that this will also clear settings for helper modes such as for non_network_walk -->
		<param name="clearDefaultTeleportedModeParams" value="false" />
		<!-- All the modes for which the router is supposed to generate network routes (like car) -->
		<param name="networkModes" value="car" />
		<!-- strength of the randomness for the utility of money in routing under toll.  Leads to Pareto-optimal route with randomly drawn money-vs-other-attributes tradeoff. Technically the width parameter of a log-normal distribution. 3.0 seems to be a good value.  -->
		<param name="routingRandomness" value="3.0" />
		<parameterset type="teleportedModeParameters" >
			<param name="beelineDistanceFactor" value="1.3" />
			<param name="mode" value="bike" />
			<!-- Free-speed factor for a teleported mode. Travel time = teleportedModeFreespeedFactor * <freespeed car travel time>. Insert a line like this for every such mode. Please do not set teleportedModeFreespeedFactor as well as teleportedModeSpeed for the same mode, but if you do, +teleportedModeFreespeedFactor wins over teleportedModeSpeed. -->
			<param name="teleportedModeFreespeedFactor" value="null" />
			<!-- Speed for a teleported mode. Travel time = (<beeline distance> * beelineDistanceFactor) / teleportedModeSpeed. Insert a line like this for every such mode. -->
			<param name="teleportedModeSpeed" value="4.166666666666667" />
		</parameterset>
		<parameterset type="teleportedModeParameters" >
			<param name="beelineDistanceFactor" value="1.3" />
			<param name="mode" value="walk" />
			<param name="teleportedModeFreespeedFactor" value="null" />
			<param name="teleportedModeSpeed" value="0.8333333333333333" />
		</parameterset>
		<parameterset type="teleportedModeParameters" >
			<param name="beelineDistanceFactor" value="1.3" />
			<param name="mode" value="non_network_walk" />
			<param name="teleportedModeFreespeedFactor" value="null" />
			<param name="teleportedModeSpeed" value="0.8333333333333333" />
		</parameterset>
		<parameterset type="teleportedModeParameters" >
			<param name="beelineDistanceFactor" value="1.3" />
			<param name="mode" value="ride" />
			<param name="teleportedModeFreespeedFactor" value="1.0" />
			<param name="teleportedModeSpeed" value="null" />
		</parameterset>
		<parameterset type="teleportedModeParameters" >
			<param name="beelineDistanceFactor" value="1.3" />
			<param name="mode" value="pt" />
			<param name="teleportedModeFreespeedFactor" value="2.0" />
			<param name="teleportedModeSpeed" value="null" />
		</parameterset>
	</module>
	<module name="scoring" >
		<!-- logit model scale parameter. default: 1.  Has name and default value for historical reasons (see Bryan Raney's phd thesis). -->
		<param name="brainExpBeta" value="2.0" />
		<!-- fraction of iterations at which MSA score averaging is started. The matsim theory department suggests to use this together with switching off choice set innovation (where a similar switch exists), but it has not been tested yet. -->
		<param name="fractionOfIterationsToStartScoreMSA" value="null" />
		<!-- new_score = (1-learningRate)*old_score + learningRate * score_from_mobsim.  learning rates close to zero emulate score averaging, but slow down initial convergence -->
		<param name="learningRate" value="1.0" />
		<param name="pathSizeLogitBeta" value="1.0" />
		<!-- There used to be a plateau between duration=0 and duration=zeroUtilityDuration. This caused durations to evolve to zero once they were below zeroUtilityDuration, causing problems.  Only use this switch if you need to be backwards compatible with some old results.  (changed nov'13) -->
		<param name="usingOldScoringBelowZeroUtilityDuration" value="false" />
		<!-- write a plans file in each iteration directory which contains what each agent actually did, and the score it received. -->
		<param name="writeExperiencedPlans" value="false" />
		<parameterset type="scoringParameters" >
			<param name="earlyDeparture" value="-0.0" />
			<param name="lateArrival" value="-18.0" />
			<param name="marginalUtilityOfMoney" value="0.01" />
			<param name="performing" value="6.0" />
			<param name="subpopulation" value="null" />
			<param name="utilityOfLineSwitch" value="-1.0" />
			<param name="waiting" value="-0.0" />
			<param name="waitingPt" value="-4.0" />
			<parameterset type="activityParams" >
				<param name="activityType" value="dummy" />
				<param name="closingTime" value="undefined" />
				<param name="earliestEndTime" value="undefined" />
				<param name="latestStartTime" value="undefined" />
				<param name="minimalDuration" value="undefined" />
				<param name="openingTime" value="undefined" />
				<param name="priority" value="1.0" />
				<param name="scoringThisActivityAtAll" value="true" />
				<!-- typical duration of activity.  needs to be defined and non-zero.  in sec. -->
				<param name="typicalDuration" value="02:00:00" />
				<!-- method to compute score at typical duration.  Options: | uniform | relative | Use uniform for backwards compatibility (all activities same score; higher proba to drop long acts). -->
				<param name="typicalDurationScoreComputation" value="relative" />
			</parameterset>
			<parameterset type="activityParams" >
				<param name="activityType" value="car interaction" />
				<param name="closingTime" value="undefined" />
				<param name="earliestEndTime" value="undefined" />
				<param name="latestStartTime" value="undefined" />
				<param name="minimalDuration" value="undefined" />
				<param name="openingTime" value="undefined" />
				<param name="priority" value="1.0" />
				<param name="scoringThisActivityAtAll" value="false" />
				<param name="typicalDuration" value="undefined" />
				<param name="typicalDurationScoreComputation" value="relative" />
			</parameterset>
			<parameterset type="activityParams" >
				<param name="activityType" value="pt interaction" />
				<param name="closingTime" value="undefined" />
				<param name="earliestEndTime" value="undefined" />
				<param name="latestStartTime" value="undefined" />
				<param name="minimalDuration" value="undefined" />
				<param name="openingTime" value="undefined" />
				<param name="priority" value="1.0" />
				<param name="scoringThisActivityAtAll" value="false" />
				<param name="typicalDuration" value="undefined" />
				<param name="typicalDurationScoreComputation" value="relative" />
			</parameterset>
			<parameterset type="activityParams" >
				<param name="activityType" value="bike interaction" />
				<param name="closingTime" value="undefined" />
				<param name="earliestEndTime" value="undefined" />
				<param name="latestStartTime" value="undefined" />
				<param name="minimalDuration" value="undefined" />
				<param name="openingTime" value="undefined" />
				<param name="priority" value="1.0" />
				<param name="scoringThisActivityAtAll" value="false" />
				<param name="typicalDuration" value="undefined" />
				<param name="typicalDurationScoreComputation" value="relative" />
			</parameterset>
			<parameterset type="activityParams" >
				<param name="activityType" value="drt interaction" />
				<param name="closingTime" value="undefined" />
				<param name="earliestEndTime" value="undefined" />
				<param name="latestStartTime" value="undefined" />
				<param name="minimalDuration" value="undefined" />
				<param name="openingTime" value="undefined" />
				<param name="priority" value="1.0" />
				<param name="scoringThisActivityAtAll" value="false" />
				<param name="typicalDuration" value="undefined" />
				<param name="typicalDurationScoreComputation" value="relative" />
			</parameterset>
			<parameterset type="activityParams" >
				<param name="activityType" value="taxi interaction" />
				<param name="closingTime" value="undefined" />
				<param name="earliestEndTime" value="undefined" />
				<param name="latestStartTime" value="undefined" />
				<param name="minimalDuration" value="undefined" />
				<param name="openingTime" value="undefined" />
				<param name="priority" value="1.0" />
				<param name="scoringThisActivityAtAll" value="false" />
				<param name="typicalDuration" value="undefined" />
				<param name="typicalDurationScoreComputation" value="relative" />
			</parameterset>
			<parameterset type="activityParams" >
				<param name="activityType" value="other interaction" />
				<param name="closingTime" value="undefined" />
				<param name="earliestEndTime" value="undefined" />
				<param name="latestStartTime" value="undefined" />
				<param name="minimalDuration" value="undefined" />
				<param name="openingTime" value="undefined" />
				<param name="priority" value="1.0" />
				<param name="scoringThisActivityAtAll" value="false" />
				<param name="typicalDuration" value="undefined" />
				<param name="typicalDurationScoreComputation" value="relative" />
			</parameterset>
			<parameterset type="activityParams" >
				<param name="activityType" value="walk interaction" />
				<param name="closingTime" value="undefined" />
				<param name="earliestEndTime" value="undefined" />
				<param name="latestStartTime" value="undefined" />
				<param name="minimalDuration" value="undefined" />
				<param name="openingTime" value="undefined" />
				<param name="priority" value="1.0" />
				<param name="scoringThisActivityAtAll" value="false" />
				<param name="typicalDuration" value="undefined" />
				<param name="typicalDurationScoreComputation" value="relative" />
			</parameterset>
			<parameterset type="activityParams" >
				<param name="activityType" value="home" />
				<param name="closingTime" value="undefined" />
				<param name="earliestEndTime" value="undefined" />
				<param name="latestStartTime" value="undefined" />
				<param name="minimalDuration" value="08:00:00" />
				<param name="openingTime" value="undefined" />
				<param name="priority" value="1.0" />
				<param name="scoringThisActivityAtAll" value="true" />
				<param name="typicalDuration" value="12:00:00" />
				<param name="typicalDurationScoreComputation" value="relative" />
			</parameterset>
			<parameterset type="activityParams" >
				<param name="activityType" value="work" />
				<param name="closingTime" value="18:00:00" />
				<param name="earliestEndTime" value="undefined" />
				<param name="latestStartTime" value="09:00:00" />
				<param name="minimalDuration" value="06:00:00" />
				<param name="openingTime" value="07:00:00" />
				<param name="priority" value="1.0" />
				<param name="scoringThisActivityAtAll" value="true" />
				<param name="typicalDuration" value="08:00:00" />
				<param name="typicalDurationScoreComputation" value="relative" />
			</parameterset>
			<parameterset type="activityParams" >
				<param name="activityType" value="ride interaction" />
				<param name="closingTime" value="undefined" />
				<param name="earliestEndTime" value="undefined" />
				<param name="latestStartTime" value="undefined" />
				<param name="minimalDuration" value="undefined" />
				<param name="openingTime" value="undefined" />
				<param name="priority" value="1.0" />
				<param name="scoringThisActivityAtAll" value="false" />
				<param name="typicalDuration" value="undefined" />
				<param name="typicalDurationScoreComputation" value="relative" />
			</parameterset>
			<parameterset type="modeParams" >
				<!-- [utils] alternative-specific constant.  Normally per trip, but that is probably buggy for multi-leg trips. -->
				<param name="constant" value="0.0" />
				<!-- [unit_of_money/day] Fixed cost of mode, per day. -->
				<param name="dailyMonetaryConstant" value="1.0" />
				<!-- [utils] daily utility constant. default=0 to be backwards compatible -->
				<param name="dailyUtilityConstant" value="0.0" />
				<!-- [utils/m] utility of traveling (e.g. walking or driving) per m, normally negative.  this is on top of the time (dis)utility. -->
				<param name="marginalUtilityOfDistance_util_m" value="-0.02" />
				<!-- [utils/hr] additional marginal utility of traveling.  normally negative.  this comes on top of the opportunity cost of time -->
				<param name="marginalUtilityOfTraveling_util_hr" value="-6.0" />
				<param name="mode" value="car" />
				<!-- [unit_of_money/m] conversion of distance into money. Normally negative. -->
				<param name="monetaryDistanceRate" value="-1.0E-4" />
			</parameterset>
			<parameterset type="modeParams" >
				<param name="constant" value="0.0" />
				<param name="dailyMonetaryConstant" value="0.0" />
				<param name="dailyUtilityConstant" value="0.0" />
				<param name="marginalUtilityOfDistance_util_m" value="-0.05" />
				<param name="marginalUtilityOfTraveling_util_hr" value="-6.0" />
				<param name="mode" value="walk" />
				<param name="monetaryDistanceRate" value="-0.005" />
			</parameterset>
			<parameterset type="modeParams" >
				<param name="constant" value="0.0" />
				<param name="dailyMonetaryConstant" value="0.0" />
				<param name="dailyUtilityConstant" value="0.0" />
				<param name="marginalUtilityOfDistance_util_m" value="-0.025" />
				<param name="marginalUtilityOfTraveling_util_hr" value="-3.0" />
				<param name="mode" value="bike" />
				<param name="monetaryDistanceRate" value="0.0015" />
			</parameterset>
			<parameterset type="modeParams" >
				<param name="constant" value="0.0" />
				<param name="dailyMonetaryConstant" value="2.0" />
				<param name="dailyUtilityConstant" value="0.0" />
				<param name="marginalUtilityOfDistance_util_m" value="-0.0025" />
				<param name="marginalUtilityOfTraveling_util_hr" value="-6.0" />
				<param name="mode" value="ride" />
				<param name="monetaryDistanceRate" value="-1.0E-4" />
			</parameterset>
			<parameterset type="modeParams" >
				<param name="constant" value="0.0" />
				<param name="dailyMonetaryConstant" value="0.0" />
				<param name="dailyUtilityConstant" value="0.0" />
				<param name="marginalUtilityOfDistance_util_m" value="-0.0025" />
				<param name="marginalUtilityOfTraveling_util_hr" value="-4.0" />
				<param name="mode" value="pt" />
				<param name="monetaryDistanceRate" value="-1.0E-4" />
			</parameterset>
			<parameterset type="modeParams" >
				<param name="constant" value="0.0" />
				<param name="dailyMonetaryConstant" value="1.0" />
				<param name="dailyUtilityConstant" value="0.0" />
				<param name="marginalUtilityOfDistance_util_m" value="-0.02" />
				<param name="marginalUtilityOfTraveling_util_hr" value="-2.0" />
				<param name="mode" value="other" />
				<param name="monetaryDistanceRate" value="-1.0E-4" />
			</parameterset>
		</parameterset>
	</module>
	<module name="subtourModeChoice" >
		<!-- Only for backwards compatibility.  Defines if only trips from modes list should change mode, or all trips.  Options: fromAllModesToSpecifiedModes fromSpecifiedModesToSpecifiedModes betweenAllAndFewerConstraints  -->
		<param name="behavior" value="fromSpecifiedModesToSpecifiedModes" />
		<!-- Defines the chain-based modes, seperated by commas -->
		<param name="chainBasedModes" value="car,bike" />
		<!-- Defines whether car availability must be considered or not. A agent has no car only if it has no license, or never access to a car -->
		<param name="considerCarAvailability" value="false" />
		<!-- If greater than 0, subtours will also consider coordinates to be at the same location when smaller than set distance. -->
		<param name="coordDistance" value="0.0" />
		<!-- Defines all the modes available, including chain-based modes, seperated by commas -->
		<param name="modes" value="car,pt,bike,walk" />
		<!-- Defines the probability of changing a single trip for a unchained mode instead of subtour. -->
		<param name="probaForRandomSingleTripMode" value="0.0" />
	</module>
	<module name="timeAllocationMutator" >
		<!-- Latest Activity End Time. Default = 24:00:00 -->
		<param name="latestActivityEndTime" value="86400.0" />
		<!-- Mutates times only around the initially defined end times. -->
		<param name="mutateAroundInitialEndTimeOnly" value="false" />
		<!-- Default:true; Defines whether time mutation changes an activity's duration. -->
		<param name="mutationAffectsDuration" value="true" />
		<!-- Default:1800.0; Defines how many seconds a time mutation can maximally shift a time. -->
		<param name="mutationRange" value="1800.0" />
		<!-- Mutation Range Step, default = 1 second -->
		<param name="mutationRangeStep" value="1.0" />
	</module>
	<module name="transit" >
		<!-- The Coordinates Reference System in which the coordinates are expressed in the input file. At import, the coordinates will be converted to the coordinate system defined in "global", and willbe converted back at export. If not specified, no conversion happens. -->
		<param name="inputScheduleCRS" value="null" />
		<param name="insistingOnUsingDeprecatedAttributeFiles" value="false" />
		<!-- The type of transit routing algorithm used, may have the values: [DijkstraBased, SwissRailRaptor] -->
		<param name="routingAlgorithmType" value="SwissRailRaptor" />
		<!-- Optional input file containing additional attributes for transit lines, stored as ObjectAttributes. -->
		<param name="transitLinesAttributesFile" value="null" />
		<!-- Comma-separated list of transportation modes that are handled as transit. Defaults to 'pt'. -->
		<param name="transitModes" value="pt" />
		<!-- Input file containing the transit schedule to be simulated. -->
		<param name="transitScheduleFile" value="null" />
		<!-- Optional input file containing additional attributes for transit stop facilities, stored as ObjectAttributes. -->
		<param name="transitStopsAttributesFile" value="null" />
		<!-- Set this parameter to true if transit should be simulated, false if not. -->
		<param name="useTransit" value="false" />
		<param name="usingTransitInMobsim" value="true" />
		<!-- Input file containing the vehicles used by the departures in the transit schedule. -->
		<param name="vehiclesFile" value="null" />
	</module>
	<module name="transitRouter" >
		<!-- additional time the router allocates when a line switch happens. Can be interpreted as a 'safety' time that agents need to safely transfer from one line to another -->
		<param name="additionalTransferTime" value="0.0" />
		<!-- Factor with which direct walk generalized cost is multiplied before it is compared to the pt generalized cost.  Set to a very high value to reduce direct walk results. -->
		<param name="directWalkFactor" value="1.0" />
		<!-- step size to increase searchRadius if no stops are found -->
		<param name="extensionRadius" value="200.0" />
		<!-- maximum beeline distance between stops that agents could transfer to by walking -->
		<param name="maxBeelineWalkConnectionDistance" value="100.0" />
		<!-- the radius in which stop locations are searched, given a start or target coordinate -->
		<param name="searchRadius" value="1000.0" />
	</module>
	<module name="travelTimeCalculator" >
		<!-- (only for backwards compatibility; only used if separateModes==false && + filterModes==true)  Transport modes that will be respected by the travel time collector. 'car' is default which includes also buses from the pt simulation module. -->
		<param name="analyzedModes" value="car" />
		<param name="calculateLinkToLinkTravelTimes" value="false" />
		<param name="calculateLinkTravelTimes" value="true" />
		<!-- (only for backwards compatiblity; only used if separateModes==false)  Only modes included in analyzedModes are included. -->
		<param name="filterModes" value="false" />
		<!-- The lenght (in sec) of the time period that is splited into time bins; an additional time bin is created to aggregate all travel times collected after maxTime -->
		<param name="maxTime" value="108000" />
		<!-- (only for backwards compatibility) If false, link travel times are measured and aggregated over all vehicles using the link. -->
		<param name="separateModes" value="true" />
		<!-- How to deal with congested time bins that have no link entry events. `optimistic' assumes free speed (too optimistic); 'experimental_LastMile' is experimental and probably too pessimistic. -->
		<param name="travelTimeAggregator" value="optimistic" />
		<!-- The size of the time bin (in sec) into which the link travel times are aggregated for the router -->
		<param name="travelTimeBinSize" value="900.0" />
		<!-- How to deal with link entry times at different positions during the time bin. Currently supported: average, linearinterpolation -->
		<param name="travelTimeGetter" value="average" />
	</module>
	<module name="vehicles" >
		<param name="vehiclesFile" value="null" />
	</module>
	<module name="vspExperimental" >
		<!-- (do not use except of you have to) There was a problem with pt interaction scoring.  Some people solved it by overwriting the parameters of the pt interaction activity type.  Doing this now throws an Exception.  If you still insist on doing this, set the following to true. -->
		<param name="isAbleToOverwritePtInteractionParams" value="false" />
		<param name="isGeneratingBoardingDeniedEvent" value="false" />
		<!-- if an approximation of the opportunity cost of time is included into the radius calculation for location choice.`true' will be faster, but it is an approximation.  Default is `true'; `false' is available for backwards compatibility. -->
		<param name="isUsingOpportunityCostOfTimeForLocationChoice" value="true" />
		<param name="logitScaleParamForPlansRemoval" value="1.0" />
		<!-- Options: | ignore | info | warn | abort | .  When violating VSP defaults, this results in nothing, logfile infos, logfile warnings, or aborts.  Members of VSP should use `abort' or talk to kai. -->
		<param name="vspDefaultsCheckingLevel" value="ignore" />
		<!-- if true then writes output_events in output directory.  default is `false'. Will only work when lastIteration is multiple of events writing interval -->
		<param name="writingOutputEvents" value="true" />
	</module>

</config>

2024-12-19T07:50:38,382  INFO ControlerUtils:84 Complete config dump done.
2024-12-19T07:50:38,382  INFO ControlerUtils:85 Checking consistency of config...
2024-12-19T07:50:38,382  INFO VspConfigConsistencyCheckerImpl:68 NOT running vsp config consistency check because vsp defaults checking level is set to IGNORE
2024-12-19T07:50:38,387  WARN ConfigConsistencyCheckerImpl:167 Using lanes without enabling linktolinkrouting might not lead to expected simulation results
2024-12-19T07:50:38,388  INFO ControlerUtils:87 Checking consistency of config done.
2024-12-19T07:50:38,388  INFO PrepareForSimImpl:128 Network seems to be multimodal. Create car-only network which is handed over to PersonPrepareForSim.
2024-12-19T07:50:38,389  INFO NetworkImpl:165  node # 1
2024-12-19T07:50:38,390  INFO NetworkImpl:165  node # 4
2024-12-19T07:50:38,390  INFO NetworkImpl:165  node # 16
2024-12-19T07:50:38,390  INFO NetworkImpl:165  node # 64
2024-12-19T07:50:38,390  INFO NetworkImpl:165  node # 256
2024-12-19T07:50:38,392  INFO NetworkImpl:165  node # 1024
2024-12-19T07:50:38,393  INFO NetworkImpl:165  node # 4096
2024-12-19T07:50:38,430  INFO NetworkImpl:165  node # 16384
2024-12-19T07:50:38,434  INFO NetworkImpl:161  link # 1
2024-12-19T07:50:38,434  INFO NetworkImpl:161  link # 4
2024-12-19T07:50:38,434  INFO NetworkImpl:161  link # 16
2024-12-19T07:50:38,435  INFO NetworkImpl:161  link # 64
2024-12-19T07:50:38,437  INFO NetworkImpl:161  link # 256
2024-12-19T07:50:38,441  INFO NetworkImpl:161  link # 1024
2024-12-19T07:50:38,456  INFO NetworkImpl:161  link # 4096
2024-12-19T07:50:38,512  INFO NetworkImpl:161  link # 16384
2024-12-19T07:50:38,596  INFO Counter:70 [VehiclesImpl] added vehicle # 1
2024-12-19T07:50:38,597  INFO Counter:70 [VehiclesImpl] added vehicle # 2
2024-12-19T07:50:38,597  INFO Counter:70 [VehiclesImpl] added vehicle # 4
2024-12-19T07:50:38,597  INFO Counter:70 [VehiclesImpl] added vehicle # 8
2024-12-19T07:50:38,597  INFO Counter:70 [VehiclesImpl] added vehicle # 16
2024-12-19T07:50:38,597  INFO Counter:70 [VehiclesImpl] added vehicle # 32
2024-12-19T07:50:38,598  INFO Counter:70 [VehiclesImpl] added vehicle # 64
2024-12-19T07:50:38,599  INFO Counter:70 [VehiclesImpl] added vehicle # 128
2024-12-19T07:50:38,606  INFO NetworkImpl:165  node # 1
2024-12-19T07:50:38,606  INFO NetworkImpl:165  node # 4
2024-12-19T07:50:38,606  INFO NetworkImpl:165  node # 16
2024-12-19T07:50:38,606  INFO NetworkImpl:165  node # 64
2024-12-19T07:50:38,606  INFO NetworkImpl:165  node # 256
2024-12-19T07:50:38,607  INFO NetworkImpl:165  node # 1024
2024-12-19T07:50:38,607  INFO NetworkImpl:165  node # 4096
2024-12-19T07:50:38,609  INFO NetworkImpl:165  node # 16384
2024-12-19T07:50:38,611  INFO NetworkImpl:161  link # 1
2024-12-19T07:50:38,611  INFO NetworkImpl:161  link # 4
2024-12-19T07:50:38,611  INFO NetworkImpl:161  link # 16
2024-12-19T07:50:38,611  INFO NetworkImpl:161  link # 64
2024-12-19T07:50:38,611  INFO NetworkImpl:161  link # 256
2024-12-19T07:50:38,612  INFO NetworkImpl:161  link # 1024
2024-12-19T07:50:38,616  INFO NetworkImpl:161  link # 4096
2024-12-19T07:50:38,630  INFO NetworkImpl:161  link # 16384
2024-12-19T07:50:38,719  WARN RandomizingTimeDistanceTravelDisutilityFactory:118 There will be no routing randomness. The randomization of the travel disutility requires the travel time cost rate to be different than zero. Continuing anyway.
2024-12-19T07:50:38,720  INFO RandomizingTimeDistanceTravelDisutilityFactory:86  sigma: 3.0; resulting normalization: 0.011108996538242306
2024-12-19T07:50:38,745  INFO RandomizingTimeDistanceTravelDisutilityFactory:86  sigma: 3.0; resulting normalization: 0.011108996538242306
2024-12-19T07:50:38,767  INFO NetworkImpl:419 building QuadTree for nodes: xrange(540428.3306076776,560059.3435176038); yrange(4154892.814417933,4198158.509710974)
2024-12-19T07:50:38,829  INFO NetworkImpl:428 Building QuadTree took 0.073 seconds.
2024-12-19T07:50:38,961  INFO Counter:70 [PersonPrepareForSim] handled person # 1
2024-12-19T07:50:38,972  INFO Counter:70 [PersonPrepareForSim] handled person # 2
2024-12-19T07:50:39,053  INFO Counter:70 [PersonPrepareForSim] handled person # 4
2024-12-19T07:50:39,141  INFO Counter:70 [PersonPrepareForSim] handled person # 8
2024-12-19T07:50:39,325  INFO Counter:70 [PersonPrepareForSim] handled person # 16
2024-12-19T07:50:39,651  INFO Counter:70 [PersonPrepareForSim] handled person # 32
2024-12-19T07:50:40,164  INFO Counter:70 [PersonPrepareForSim] handled person # 64
2024-12-19T07:50:40,787  INFO Counter:70 [PersonPrepareForSim] handled person # 128
2024-12-19T07:50:40,826  INFO Counter:75 [PersonPrepareForSim] handled person # 150
2024-12-19T07:50:40,837  INFO AbstractController:136 ###################################################
2024-12-19T07:50:40,837  INFO AbstractController:137 ### ITERATION 0 BEGINS
2024-12-19T07:50:40,838  INFO ControlerListenerManagerImpl:156 calling notifyIterationStarts on org.matsim.analysis.LegHistogramListener with priority 0.0
2024-12-19T07:50:40,838  INFO ControlerListenerManagerImpl:156 calling notifyIterationStarts on org.matsim.analysis.LinkStatsControlerListener with priority 0.0
2024-12-19T07:50:40,839  INFO ControlerListenerManagerImpl:156 calling notifyIterationStarts on org.matsim.core.replanning.ReplanningContextImpl with priority 0.0
2024-12-19T07:50:40,839  INFO ControlerListenerManagerImpl:156 calling notifyIterationStarts on org.matsim.core.scoring.ScoringFunctionsForPopulation$$Lambda$241/0x00007f2a54353300 with priority 0.0
2024-12-19T07:50:40,846  INFO ControlerListenerManagerImpl:156 calling notifyIterationStarts on org.matsim.core.scoring.ExperiencedPlansServiceImpl$1 with priority 0.0
2024-12-19T07:50:40,846  INFO ControlerListenerManagerImpl:159 [it.0] all ControlerIterationStartsListeners called.
2024-12-19T07:50:40,847  INFO ControlerListenerManagerImpl:242 calling notifyBeforeMobsim on org.matsim.core.controler.corelisteners.EventsHandlingImpl with priority 0.0
2024-12-19T07:50:40,847  INFO EventsManagerImpl:168 resetting Event-Handlers
2024-12-19T07:50:40,847  INFO EventsManagerImpl:175   org.matsim.core.trafficmonitoring.TravelTimeCalculator
2024-12-19T07:50:40,860  INFO EventsManagerImpl:175   org.matsim.analysis.VolumesAnalyzer
2024-12-19T07:50:40,860  INFO EventsManagerImpl:175   org.matsim.core.scoring.ScoringFunctionsForPopulation
2024-12-19T07:50:40,861  INFO EventsManagerImpl:175   org.matsim.analysis.LegHistogram
2024-12-19T07:50:40,861  INFO EventsManagerImpl:175   org.matsim.analysis.CalcLegTimes
2024-12-19T07:50:40,862  INFO EventsManagerImpl:138 adding Event-Handler: org.matsim.core.events.algorithms.EventWriterXML
2024-12-19T07:50:40,862  INFO EventsManagerImpl:144   org.matsim.core.events.algorithms.EventWriter
2024-12-19T07:50:40,863  INFO EventsManagerImpl:144   org.matsim.core.events.handler.BasicEventHandler
2024-12-19T07:50:40,863  INFO EventsManagerImpl:205     > org.matsim.api.core.v01.events.Event
2024-12-19T07:50:40,863  INFO EventsManagerImpl:154 
2024-12-19T07:50:40,863  INFO EventsManagerImpl:138 adding Event-Handler: org.matsim.core.events.algorithms.EventWriterXML
2024-12-19T07:50:40,863  INFO EventsManagerImpl:144   org.matsim.core.events.algorithms.EventWriter
2024-12-19T07:50:40,863  INFO EventsManagerImpl:144   org.matsim.core.events.handler.BasicEventHandler
2024-12-19T07:50:40,863  INFO EventsManagerImpl:205     > org.matsim.api.core.v01.events.Event
2024-12-19T07:50:40,863  INFO EventsManagerImpl:154 
2024-12-19T07:50:40,863  INFO ControlerListenerManagerImpl:242 calling notifyBeforeMobsim on org.matsim.core.controler.corelisteners.PlansDumpingImpl with priority 0.0
2024-12-19T07:50:40,863  INFO PlansDumpingImpl:77 dumping plans...
2024-12-19T07:50:40,880  INFO Counter:70 [PopulationWriter] dumped person # 1
2024-12-19T07:50:40,880  INFO Counter:70 [PopulationWriter] dumped person # 2
2024-12-19T07:50:40,881  INFO Counter:70 [PopulationWriter] dumped person # 4
2024-12-19T07:50:40,881  INFO Counter:70 [PopulationWriter] dumped person # 8
2024-12-19T07:50:40,881  INFO Counter:70 [PopulationWriter] dumped person # 16
2024-12-19T07:50:40,881  INFO Counter:70 [PopulationWriter] dumped person # 32
2024-12-19T07:50:40,881  INFO Counter:70 [PopulationWriter] dumped person # 64
2024-12-19T07:50:40,881  INFO Counter:70 [PopulationWriter] dumped person # 128
2024-12-19T07:50:40,887  INFO Counter:70 [ParallelPopulationWriterV6] dumped person # 1
2024-12-19T07:50:40,888  INFO Counter:70 [ParallelPopulationWriterV6] dumped person # 2
2024-12-19T07:50:40,888  INFO Counter:70 [ParallelPopulationWriterV6] dumped person # 4
2024-12-19T07:50:40,889  INFO Counter:70 [ParallelPopulationWriterV6] dumped person # 8
2024-12-19T07:50:40,890  INFO Counter:70 [ParallelPopulationWriterV6] dumped person # 16
2024-12-19T07:50:40,892  INFO Counter:70 [ParallelPopulationWriterV6] dumped person # 32
2024-12-19T07:50:40,895  INFO Counter:70 [ParallelPopulationWriterV6] dumped person # 64
2024-12-19T07:50:40,901  INFO Counter:70 [ParallelPopulationWriterV6] dumped person # 128
2024-12-19T07:50:40,903  INFO Counter:75 [ParallelPopulationWriterV6] dumped person # 150
2024-12-19T07:50:40,903  INFO PopulationWriter:150 Population written to: scenarios/equil/output/run_20241219_075035/ITERS/it.0/0.plans.xml.gz
2024-12-19T07:50:40,904  INFO Counter:75 [PopulationWriter] dumped person # 150
2024-12-19T07:50:40,904  INFO PlansDumpingImpl:94 finished plans dump.
2024-12-19T07:50:40,905  INFO ControlerListenerManagerImpl:248 calling notifyBeforeMobsim on org.matsim.core.population.VspPlansCleaner with priority 0.0
2024-12-19T07:50:40,905  INFO ControlerListenerManagerImpl:251 [it.0] all ControlerBeforeMobsimListeners called.
2024-12-19T07:50:40,906  INFO PrepareForMobsimImpl:86 Network seems to be multimodal. Create car-only network which is handed over to PersonPrepareForSim.
2024-12-19T07:50:40,906  INFO NetworkImpl:165  node # 1
2024-12-19T07:50:40,906  INFO NetworkImpl:165  node # 4
2024-12-19T07:50:40,906  INFO NetworkImpl:165  node # 16
2024-12-19T07:50:40,906  INFO NetworkImpl:165  node # 64
2024-12-19T07:50:40,906  INFO NetworkImpl:165  node # 256
2024-12-19T07:50:40,906  INFO NetworkImpl:165  node # 1024
2024-12-19T07:50:40,907  INFO NetworkImpl:165  node # 4096
2024-12-19T07:50:40,908  INFO NetworkImpl:165  node # 16384
2024-12-19T07:50:40,909  INFO NetworkImpl:161  link # 1
2024-12-19T07:50:40,909  INFO NetworkImpl:161  link # 4
2024-12-19T07:50:40,909  INFO NetworkImpl:161  link # 16
2024-12-19T07:50:40,909  INFO NetworkImpl:161  link # 64
2024-12-19T07:50:40,910  INFO NetworkImpl:161  link # 256
2024-12-19T07:50:40,910  INFO NetworkImpl:161  link # 1024
2024-12-19T07:50:40,913  INFO NetworkImpl:161  link # 4096
2024-12-19T07:50:40,925  INFO NetworkImpl:161  link # 16384
2024-12-19T07:50:40,976  INFO RandomizingTimeDistanceTravelDisutilityFactory:86  sigma: 3.0; resulting normalization: 0.011108996538242306
2024-12-19T07:50:40,979  INFO RandomizingTimeDistanceTravelDisutilityFactory:86  sigma: 3.0; resulting normalization: 0.011108996538242306
2024-12-19T07:50:40,983  INFO Counter:70 [PersonPrepareForSim] handled person # 2
2024-12-19T07:50:40,983  INFO Counter:70 [PersonPrepareForSim] handled person # 1
2024-12-19T07:50:40,984  INFO Counter:70 [PersonPrepareForSim] handled person # 4
2024-12-19T07:50:40,984  INFO Counter:70 [PersonPrepareForSim] handled person # 8
2024-12-19T07:50:40,984  INFO Counter:70 [PersonPrepareForSim] handled person # 16
2024-12-19T07:50:40,984  INFO Counter:70 [PersonPrepareForSim] handled person # 32
2024-12-19T07:50:40,984  INFO Counter:70 [PersonPrepareForSim] handled person # 64
2024-12-19T07:50:40,985  INFO Counter:70 [PersonPrepareForSim] handled person # 128
2024-12-19T07:50:40,985  INFO Counter:75 [PersonPrepareForSim] handled person # 150
2024-12-19T07:50:41,034  INFO MobsimListenerManager:50 calling addQueueSimulationListener
2024-12-19T07:50:41,035  INFO MobsimListenerManager:54   assigned class org.matsim.core.mobsim.framework.listeners.MobsimListener to interface org.matsim.core.mobsim.framework.listeners.MobsimListener
2024-12-19T07:50:41,035  INFO MobsimListenerManager:54   assigned class org.matsim.core.mobsim.framework.listeners.MobsimListener to interface org.matsim.vis.snapshotwriters.SnapshotWriterManager
2024-12-19T07:50:41,035  INFO MobsimListenerManager:54   assigned class org.matsim.core.mobsim.framework.listeners.MobsimListener to interface org.matsim.core.mobsim.framework.listeners.MobsimAfterSimStepListener
2024-12-19T07:50:41,035  INFO MobsimListenerManager:54   assigned class org.matsim.core.mobsim.framework.listeners.MobsimListener to interface org.matsim.core.mobsim.framework.listeners.MobsimInitializedListener
2024-12-19T07:50:41,035  INFO MobsimListenerManager:54   assigned class org.matsim.core.mobsim.framework.listeners.MobsimListener to interface org.matsim.core.mobsim.framework.listeners.MobsimBeforeCleanupListener
2024-12-19T07:50:41,039  INFO QSimProvider:131 Added MobsimEngine class org.matsim.core.mobsim.qsim.ActivityEngineDefaultImpl
2024-12-19T07:50:41,039  INFO QSimProvider:137 Added Activityhandler class org.matsim.core.mobsim.qsim.ActivityEngineDefaultImpl
2024-12-19T07:50:41,184  INFO QSimProvider:143 Added DepartureHandler class org.matsim.core.mobsim.qsim.qnetsimengine.VehicularDepartureHandler
2024-12-19T07:50:41,184  INFO QSimProvider:131 Added MobsimEngine class org.matsim.core.mobsim.qsim.qnetsimengine.QNetsimEngineWithThreadpool
2024-12-19T07:50:41,184  INFO QSimProvider:131 Added MobsimEngine class org.matsim.core.mobsim.qsim.DefaultTeleportationEngine
2024-12-19T07:50:41,184  INFO QSimProvider:143 Added DepartureHandler class org.matsim.core.mobsim.qsim.DefaultTeleportationEngine
2024-12-19T07:50:41,184  INFO QSimProvider:149 Added AgentSource class org.matsim.core.mobsim.qsim.agents.PopulationAgentSource
2024-12-19T07:50:41,185  INFO MobsimListenerManager:50 calling addQueueSimulationListener
2024-12-19T07:50:41,185  INFO MobsimListenerManager:54   assigned class org.matsim.core.mobsim.framework.listeners.MobsimListener to interface org.matsim.core.mobsim.framework.listeners.MobsimBeforeSimStepListener
2024-12-19T07:50:41,185  INFO MobsimListenerManager:54   assigned class org.matsim.core.mobsim.framework.listeners.MobsimListener to interface org.matsim.core.mobsim.framework.listeners.MobsimListener
2024-12-19T07:50:41,185  INFO MobsimListenerManager:54   assigned class org.matsim.core.mobsim.framework.listeners.MobsimListener to interface org.matsim.core.mobsim.qsim.messagequeueengine.MessageQueueEngine
2024-12-19T07:50:41,185  INFO QSimProvider:155 Added MobsimListener class org.matsim.core.mobsim.qsim.messagequeueengine.MessageQueueEngine
2024-12-19T07:50:41,190  INFO PopulationUtils:1247 adding scenario element for allpersons container
2024-12-19T07:50:41,190  INFO PopulationImpl:107  person # 1
2024-12-19T07:50:41,191  INFO PopulationImpl:107  person # 4
2024-12-19T07:50:41,191  INFO PopulationImpl:107  person # 16
2024-12-19T07:50:41,192  INFO PopulationImpl:107  person # 64
2024-12-19T07:50:41,194  INFO VehicleUtils:395 adding scenario element for allvehicles container
2024-12-19T07:50:41,194  INFO Counter:70 [VehiclesImpl] added vehicle # 1
2024-12-19T07:50:41,194  INFO Counter:70 [VehiclesImpl] added vehicle # 2
2024-12-19T07:50:41,194  INFO Counter:70 [VehiclesImpl] added vehicle # 4
2024-12-19T07:50:41,194  INFO Counter:70 [VehiclesImpl] added vehicle # 8
2024-12-19T07:50:41,195  INFO Counter:70 [VehiclesImpl] added vehicle # 16
2024-12-19T07:50:41,195  INFO Counter:70 [VehiclesImpl] added vehicle # 32
2024-12-19T07:50:41,195  INFO Counter:70 [VehiclesImpl] added vehicle # 64
2024-12-19T07:50:41,196  INFO Counter:70 [VehiclesImpl] added vehicle # 128
2024-12-19T07:50:41,239  INFO AbstractQNetsimEngine:426 Assigned 27759 nodes and 64052 links to QSimEngineRunner #0
2024-12-19T07:50:41,242  INFO EventsManagerImpl:115  event # 1
2024-12-19T07:50:41,245  INFO EventsManagerImpl:115  event # 4
2024-12-19T07:50:41,246  INFO EventsManagerImpl:115  event # 16
2024-12-19T07:50:41,248  INFO EventsManagerImpl:115  event # 64
2024-12-19T07:50:41,251  INFO AbstractQNetsimEngine:364 SIMULATION (QNetsimEngine) AT 08:00:00 : #links=12 #nodes=10
2024-12-19T07:50:41,254  INFO EventsManagerImpl:115  event # 256
2024-12-19T07:50:41,259  INFO QSim:566 SIMULATION (NEW QSim) AT 08:00:00 : #Veh=150 lost=0 simT=0.0s realT=0s; (s/r): 0.0
2024-12-19T07:50:41,312  INFO EventsManagerImpl:115  event # 1024
2024-12-19T07:50:41,446  INFO EventsManagerImpl:115  event # 4096
2024-12-19T07:50:41,594  INFO AbstractQNetsimEngine:364 SIMULATION (QNetsimEngine) AT 09:00:00 : #links=36 #nodes=3
2024-12-19T07:50:41,594  INFO QSim:566 SIMULATION (NEW QSim) AT 09:00:00 : #Veh=150 lost=0 simT=3600.0s realT=0s; (s/r): Infinity
2024-12-19T07:50:41,852  INFO AbstractQNetsimEngine:364 SIMULATION (QNetsimEngine) AT 10:00:00 : #links=40 #nodes=2
2024-12-19T07:50:41,852  INFO QSim:566 SIMULATION (NEW QSim) AT 10:00:00 : #Veh=150 lost=0 simT=7200.0s realT=0s; (s/r): Infinity
2024-12-19T07:50:41,900  INFO EventsManagerImpl:115  event # 16384
2024-12-19T07:50:42,094  INFO AbstractQNetsimEngine:364 SIMULATION (QNetsimEngine) AT 11:00:00 : #links=36 #nodes=0
2024-12-19T07:50:42,094  INFO QSim:566 SIMULATION (NEW QSim) AT 11:00:00 : #Veh=150 lost=0 simT=10800.0s realT=1s; (s/r): 10800.0
2024-12-19T07:50:42,300  INFO AbstractQNetsimEngine:364 SIMULATION (QNetsimEngine) AT 12:00:00 : #links=7 #nodes=0
2024-12-19T07:50:42,300  INFO QSim:566 SIMULATION (NEW QSim) AT 12:00:00 : #Veh=150 lost=0 simT=14400.0s realT=1s; (s/r): 14400.0
2024-12-19T07:50:42,474  INFO AbstractQNetsimEngine:364 SIMULATION (QNetsimEngine) AT 13:00:00 : #links=10 #nodes=0
2024-12-19T07:50:42,474  INFO QSim:566 SIMULATION (NEW QSim) AT 13:00:00 : #Veh=150 lost=0 simT=18000.0s realT=1s; (s/r): 18000.0
2024-12-19T07:50:42,635  INFO AbstractQNetsimEngine:364 SIMULATION (QNetsimEngine) AT 14:00:00 : #links=9 #nodes=1
2024-12-19T07:50:42,635  INFO QSim:566 SIMULATION (NEW QSim) AT 14:00:00 : #Veh=150 lost=0 simT=21600.0s realT=1s; (s/r): 21600.0
2024-12-19T07:50:42,809  INFO AbstractQNetsimEngine:364 SIMULATION (QNetsimEngine) AT 15:00:00 : #links=0 #nodes=0
2024-12-19T07:50:42,809  INFO QSim:566 SIMULATION (NEW QSim) AT 15:00:00 : #Veh=150 lost=0 simT=25200.0s realT=1s; (s/r): 25200.0
2024-12-19T07:50:42,973  INFO AbstractQNetsimEngine:364 SIMULATION (QNetsimEngine) AT 16:00:00 : #links=0 #nodes=0
2024-12-19T07:50:42,973  INFO QSim:566 SIMULATION (NEW QSim) AT 16:00:00 : #Veh=150 lost=0 simT=28800.0s realT=1s; (s/r): 28800.0
2024-12-19T07:50:43,126  INFO AbstractQNetsimEngine:364 SIMULATION (QNetsimEngine) AT 17:00:00 : #links=12 #nodes=8
2024-12-19T07:50:43,127  INFO QSim:566 SIMULATION (NEW QSim) AT 17:00:00 : #Veh=150 lost=0 simT=32400.0s realT=2s; (s/r): 16200.0
2024-12-19T07:50:43,368  INFO AbstractQNetsimEngine:364 SIMULATION (QNetsimEngine) AT 18:00:00 : #links=27 #nodes=0
2024-12-19T07:50:43,368  INFO QSim:566 SIMULATION (NEW QSim) AT 18:00:00 : #Veh=150 lost=0 simT=36000.0s realT=2s; (s/r): 18000.0
2024-12-19T07:50:43,504 ERROR BasicPlanAgentImpl:187 last activity of person driver agent id car_128.02_401_10 has end time < infty; setting it to infty
2024-12-19T07:50:43,505 ERROR BasicPlanAgentImpl:188  This message given only once.
2024-12-19T07:50:43,582  INFO AbstractQNetsimEngine:364 SIMULATION (QNetsimEngine) AT 19:00:00 : #links=50 #nodes=2
2024-12-19T07:50:43,582  INFO QSim:566 SIMULATION (NEW QSim) AT 19:00:00 : #Veh=142 lost=0 simT=39600.0s realT=2s; (s/r): 19800.0
2024-12-19T07:50:43,757  INFO AbstractQNetsimEngine:364 SIMULATION (QNetsimEngine) AT 20:00:00 : #links=28 #nodes=0
2024-12-19T07:50:43,757  INFO QSim:566 SIMULATION (NEW QSim) AT 20:00:00 : #Veh=100 lost=0 simT=43200.0s realT=2s; (s/r): 21600.0
2024-12-19T07:50:43,906  INFO AbstractQNetsimEngine:364 SIMULATION (QNetsimEngine) AT 21:00:00 : #links=13 #nodes=0
2024-12-19T07:50:43,906  INFO QSim:566 SIMULATION (NEW QSim) AT 21:00:00 : #Veh=27 lost=0 simT=46800.0s realT=2s; (s/r): 23400.0
2024-12-19T07:50:44,049  INFO AbstractQNetsimEngine:364 SIMULATION (QNetsimEngine) AT 22:00:00 : #links=13 #nodes=0
2024-12-19T07:50:44,049  INFO QSim:566 SIMULATION (NEW QSim) AT 22:00:00 : #Veh=26 lost=0 simT=50400.0s realT=3s; (s/r): 16800.0
2024-12-19T07:50:44,195  INFO AbstractQNetsimEngine:364 SIMULATION (QNetsimEngine) AT 23:00:00 : #links=7 #nodes=0
2024-12-19T07:50:44,195  INFO QSim:566 SIMULATION (NEW QSim) AT 23:00:00 : #Veh=16 lost=0 simT=54000.0s realT=3s; (s/r): 18000.0
2024-12-19T07:50:44,334  INFO AbstractQNetsimEngine:364 SIMULATION (QNetsimEngine) AT 24:00:00 : #links=5 #nodes=0
2024-12-19T07:50:44,334  INFO QSim:566 SIMULATION (NEW QSim) AT 24:00:00 : #Veh=15 lost=0 simT=57600.0s realT=3s; (s/r): 19200.0
2024-12-19T07:50:44,430  INFO Gbl:196 Thread performance: Thread=class org.matsim.core.events.SimStepParallelEventsManagerImpl$ProcessEventsRunnable0  cpu-time=1.089788638sec
2024-12-19T07:50:44,430  INFO AbstractController$9:237 ### ITERATION 0 fires after mobsim event
2024-12-19T07:50:44,431  INFO ControlerListenerManagerImpl:269 calling notifyAfterMobsim on org.matsim.analysis.LegTimesControlerListener with priority 0.0
2024-12-19T07:50:44,435  INFO LegTimesControlerListener:51 [0] average trip (probably: leg) duration is: 13098 seconds = 03:38:18
2024-12-19T07:50:44,435  INFO ControlerListenerManagerImpl:269 calling notifyAfterMobsim on org.matsim.core.events.MobsimScopeEventHandling with priority 0.0
2024-12-19T07:50:44,436  INFO ControlerListenerManagerImpl:269 calling notifyAfterMobsim on org.matsim.core.scoring.EventsToActivities$1 with priority 0.0
2024-12-19T07:50:44,437  INFO ControlerListenerManagerImpl:272 [it.0] all ControlerAfterMobsimListeners called.
2024-12-19T07:50:44,438  INFO AbstractController$4:162 ### ITERATION 0 fires scoring event
2024-12-19T07:50:44,438  INFO ControlerListenerManagerImpl:197 calling notifyScoring on org.matsim.core.scoring.PlansScoringImpl with priority 0.0
2024-12-19T07:50:44,441  INFO NewScoreAssignerImpl:58 it: 0 msaStart: null
2024-12-19T07:50:44,442  INFO ControlerListenerManagerImpl:209 [it.0] all ControlerScoringListeners called.
2024-12-19T07:50:44,442  INFO AbstractController$5:170 ### ITERATION 0 fires iteration end event
2024-12-19T07:50:44,443  INFO ControlerListenerManagerImpl:172 calling notifyIterationEnds on org.matsim.core.controler.corelisteners.EventsHandlingImpl with priority 0.0
2024-12-19T07:50:44,444  INFO EventsManagerImpl:159 removing Event-Handler: org.matsim.core.events.algorithms.EventWriterXML
2024-12-19T07:50:44,444  INFO EventsManagerImpl:159 removing Event-Handler: org.matsim.core.events.algorithms.EventWriterXML
2024-12-19T07:50:44,444  INFO ControlerListenerManagerImpl:172 calling notifyIterationEnds on org.matsim.core.scoring.PlansScoringImpl with priority 0.0
2024-12-19T07:50:44,445  INFO ControlerListenerManagerImpl:180 calling notifyIterationEnds on org.matsim.counts.CountsControlerListener with priority 0.0
2024-12-19T07:50:44,445  INFO ControlerListenerManagerImpl:180 calling notifyIterationEnds on org.matsim.analysis.ModeStatsControlerListener with priority 0.0
2024-12-19T07:50:44,446  INFO ModeStatsControlerListener:133 Mode shares over all 300.0 trips found. MainModeIdentifier: class org.matsim.core.router.DefaultAnalysisMainModeIdentifier
2024-12-19T07:50:44,446  INFO ModeStatsControlerListener:140 -- mode share of mode car = 1.0
2024-12-19T07:50:44,447  INFO ControlerListenerManagerImpl:180 calling notifyIterationEnds on org.matsim.analysis.ScoreStatsControlerListener with priority 0.0
2024-12-19T07:50:44,448  INFO ScoreStatsControlerListener:154 -- avg. score of the executed plan of each agent: -4898.058721761127
2024-12-19T07:50:44,448  INFO ScoreStatsControlerListener:155 -- avg. score of the worst plan of each agent: -4898.058721761127
2024-12-19T07:50:44,449  INFO ScoreStatsControlerListener:156 -- avg. of the avg. plan score per agent: -4898.058721761127
2024-12-19T07:50:44,449  INFO ScoreStatsControlerListener:157 -- avg. score of the best plan of each agent: -4898.058721761127
2024-12-19T07:50:44,456  INFO ControlerListenerManagerImpl:180 calling notifyIterationEnds on org.matsim.analysis.IterationTravelStatsControlerListener with priority 0.0
2024-12-19T07:50:44,468  INFO TravelDistanceStats:115 -- average leg distance per plan (executed plans only): 122455.91183412033 meters
2024-12-19T07:50:44,469  INFO TravelDistanceStats:116 average leg distance per Person (executed plans only): 244911.82366824066 meters (statistic on all 300 legs which have a finite distance)
2024-12-19T07:50:44,469  INFO TravelDistanceStats:117 -- average trip distance per plan (executed plans only): 122455.91183412033 meters
2024-12-19T07:50:44,469  INFO TravelDistanceStats:118 average trip distance per Person (executed plans only): 244911.82366824066 meters (statistic on all 300 trips which have a finite distance)
2024-12-19T07:50:44,469  INFO TravelDistanceStats:119 (TravelDistanceStats takes an average over all legs where the simulation reports travelled (network) distances
2024-12-19T07:50:44,469  INFO TravelDistanceStats:120 (and teleported legs whose route contains a distance.)
2024-12-19T07:50:44,515  INFO ActivityWriter:39 Writing all Activities to activitiescsv
2024-12-19T07:50:44,526  INFO ActivityWriter:59 ...done
2024-12-19T07:50:44,526  INFO ControlerListenerManagerImpl:180 calling notifyIterationEnds on org.matsim.analysis.LegHistogramListener with priority 0.0
2024-12-19T07:50:44,533  INFO LegHistogramListener:73 number of legs:	300	100%
2024-12-19T07:50:44,535  INFO LegHistogramListener:80 number of car legs:	300	100.0%
2024-12-19T07:50:44,970  INFO ControlerListenerManagerImpl:180 calling notifyIterationEnds on org.matsim.analysis.LinkStatsControlerListener with priority 0.0
2024-12-19T07:50:44,970  INFO ControlerListenerManagerImpl:184 [it.0] all ControlerIterationEndsListeners called.
2024-12-19T07:50:45,044  INFO AbstractController:184 ### ITERATION 0 ENDS
2024-12-19T07:50:45,045  INFO AbstractController:185 ###################################################
2024-12-19T07:50:45,045  INFO AbstractController:136 ###################################################
2024-12-19T07:50:45,045  INFO AbstractController:137 ### ITERATION 1 BEGINS
2024-12-19T07:50:45,045  INFO ControlerListenerManagerImpl:156 calling notifyIterationStarts on org.matsim.analysis.LegHistogramListener with priority 0.0
2024-12-19T07:50:45,045  INFO ControlerListenerManagerImpl:156 calling notifyIterationStarts on org.matsim.analysis.LinkStatsControlerListener with priority 0.0
2024-12-19T07:50:45,045  INFO ControlerListenerManagerImpl:156 calling notifyIterationStarts on org.matsim.core.replanning.ReplanningContextImpl with priority 0.0
2024-12-19T07:50:45,045  INFO ControlerListenerManagerImpl:156 calling notifyIterationStarts on org.matsim.core.scoring.ScoringFunctionsForPopulation$$Lambda$241/0x00007f2a54353300 with priority 0.0
2024-12-19T07:50:45,046  INFO ControlerListenerManagerImpl:156 calling notifyIterationStarts on org.matsim.core.scoring.ExperiencedPlansServiceImpl$1 with priority 0.0
2024-12-19T07:50:45,046  INFO ControlerListenerManagerImpl:159 [it.1] all ControlerIterationStartsListeners called.
2024-12-19T07:50:45,047  INFO ControlerListenerManagerImpl:221 calling notifyReplanning on org.matsim.core.controler.corelisteners.PlansReplanningImpl with priority 0.0
2024-12-19T07:50:45,048  INFO RandomizingTimeDistanceTravelDisutilityFactory:86  sigma: 3.0; resulting normalization: 0.011108996538242306
2024-12-19T07:50:45,049  INFO RandomizingTimeDistanceTravelDisutilityFactory:86  sigma: 3.0; resulting normalization: 0.011108996538242306
2024-12-19T07:50:45,053  INFO GenericPlanStrategyImpl:135 Plan-Strategy finished, 124 plans handled. Strategy: BestPlanSelector
2024-12-19T07:50:45,053  INFO AbstractMultithreadedModule:142 [PlanRouter] starting 2 threads, handling 14 plans
2024-12-19T07:50:45,108  INFO Counter:70 [PlanRouter] handled plan # 1
2024-12-19T07:50:45,110  INFO Counter:70 [PlanRouter] handled plan # 2
2024-12-19T07:50:45,144  INFO Counter:70 [PlanRouter] handled plan # 4
2024-12-19T07:50:45,218  INFO Counter:70 [PlanRouter] handled plan # 8
2024-12-19T07:50:45,306  INFO AbstractMultithreadedModule:157 [PlanRouter] all 2 threads finished.
2024-12-19T07:50:45,306  INFO GenericPlanStrategyImpl:135 Plan-Strategy finished, 14 plans handled. Strategy: RandomPlanSelector_ReRoute
2024-12-19T07:50:45,306  INFO AbstractMultithreadedModule:142 [MutateActivityTimeAllocation] starting 2 threads, handling 12 plans
2024-12-19T07:50:45,306  INFO Counter:70 [MutateActivityTimeAllocation] handled plan # 2
2024-12-19T07:50:45,306  INFO Counter:70 [MutateActivityTimeAllocation] handled plan # 1
2024-12-19T07:50:45,307  INFO Counter:70 [MutateActivityTimeAllocation] handled plan # 4
2024-12-19T07:50:45,307  INFO Counter:70 [MutateActivityTimeAllocation] handled plan # 8
2024-12-19T07:50:45,307  INFO AbstractMultithreadedModule:157 [MutateActivityTimeAllocation] all 2 threads finished.
2024-12-19T07:50:45,308  INFO GenericPlanStrategyImpl:135 Plan-Strategy finished, 12 plans handled. Strategy: RandomPlanSelector_TimeAllocationMutatorModule
2024-12-19T07:50:45,308  INFO ControlerListenerManagerImpl:230 [it.1] all ControlerReplanningListeners called.
2024-12-19T07:50:45,308  INFO ControlerListenerManagerImpl:242 calling notifyBeforeMobsim on org.matsim.core.controler.corelisteners.EventsHandlingImpl with priority 0.0
2024-12-19T07:50:45,308  INFO EventsManagerImpl:168 resetting Event-Handlers
2024-12-19T07:50:45,308  INFO EventsManagerImpl:175   org.matsim.core.trafficmonitoring.TravelTimeCalculator
2024-12-19T07:50:45,318  INFO EventsManagerImpl:175   org.matsim.analysis.VolumesAnalyzer
2024-12-19T07:50:45,321  INFO EventsManagerImpl:175   org.matsim.core.scoring.ScoringFunctionsForPopulation
2024-12-19T07:50:45,321  INFO EventsManagerImpl:175   org.matsim.analysis.LegHistogram
2024-12-19T07:50:45,321  INFO EventsManagerImpl:175   org.matsim.analysis.CalcLegTimes
2024-12-19T07:50:45,322  INFO EventsManagerImpl:138 adding Event-Handler: org.matsim.core.events.algorithms.EventWriterXML
2024-12-19T07:50:45,322  INFO EventsManagerImpl:144   org.matsim.core.events.algorithms.EventWriter
2024-12-19T07:50:45,322  INFO EventsManagerImpl:144   org.matsim.core.events.handler.BasicEventHandler
2024-12-19T07:50:45,322  INFO EventsManagerImpl:205     > org.matsim.api.core.v01.events.Event
2024-12-19T07:50:45,322  INFO EventsManagerImpl:154 
2024-12-19T07:50:45,322  INFO EventsManagerImpl:138 adding Event-Handler: org.matsim.core.events.algorithms.EventWriterXML
2024-12-19T07:50:45,322  INFO EventsManagerImpl:144   org.matsim.core.events.algorithms.EventWriter
2024-12-19T07:50:45,323  INFO EventsManagerImpl:144   org.matsim.core.events.handler.BasicEventHandler
2024-12-19T07:50:45,323  INFO EventsManagerImpl:205     > org.matsim.api.core.v01.events.Event
2024-12-19T07:50:45,323  INFO EventsManagerImpl:154 
2024-12-19T07:50:45,323  INFO ControlerListenerManagerImpl:242 calling notifyBeforeMobsim on org.matsim.core.controler.corelisteners.PlansDumpingImpl with priority 0.0
2024-12-19T07:50:45,323  INFO PlansDumpingImpl:77 dumping plans...
2024-12-19T07:50:45,324  INFO Counter:70 [PopulationWriter] dumped person # 1
2024-12-19T07:50:45,324  INFO Counter:70 [PopulationWriter] dumped person # 2
2024-12-19T07:50:45,325  INFO Counter:70 [PopulationWriter] dumped person # 4
2024-12-19T07:50:45,325  INFO Counter:70 [PopulationWriter] dumped person # 8
2024-12-19T07:50:45,325  INFO Counter:70 [PopulationWriter] dumped person # 16
2024-12-19T07:50:45,325  INFO Counter:70 [PopulationWriter] dumped person # 32
2024-12-19T07:50:45,325  INFO Counter:70 [PopulationWriter] dumped person # 64
2024-12-19T07:50:45,325  INFO Counter:70 [ParallelPopulationWriterV6] dumped person # 1
2024-12-19T07:50:45,325  INFO Counter:70 [PopulationWriter] dumped person # 128
2024-12-19T07:50:45,326  INFO Counter:70 [ParallelPopulationWriterV6] dumped person # 2
2024-12-19T07:50:45,326  INFO Counter:70 [ParallelPopulationWriterV6] dumped person # 4
2024-12-19T07:50:45,326  INFO Counter:70 [ParallelPopulationWriterV6] dumped person # 8
2024-12-19T07:50:45,327  INFO Counter:70 [ParallelPopulationWriterV6] dumped person # 16
2024-12-19T07:50:45,330  INFO Counter:70 [ParallelPopulationWriterV6] dumped person # 32
2024-12-19T07:50:45,333  INFO Counter:70 [ParallelPopulationWriterV6] dumped person # 64
2024-12-19T07:50:45,339  INFO Counter:70 [ParallelPopulationWriterV6] dumped person # 128
2024-12-19T07:50:45,340  INFO Counter:75 [ParallelPopulationWriterV6] dumped person # 150
2024-12-19T07:50:45,340  INFO PopulationWriter:150 Population written to: scenarios/equil/output/run_20241219_075035/ITERS/it.1/1.plans.xml.gz
2024-12-19T07:50:45,341  INFO Counter:75 [PopulationWriter] dumped person # 150
2024-12-19T07:50:45,341  INFO PlansDumpingImpl:94 finished plans dump.
2024-12-19T07:50:45,341  INFO ControlerListenerManagerImpl:248 calling notifyBeforeMobsim on org.matsim.core.population.VspPlansCleaner with priority 0.0
2024-12-19T07:50:45,341  INFO ControlerListenerManagerImpl:251 [it.1] all ControlerBeforeMobsimListeners called.
2024-12-19T07:50:45,341  INFO PrepareForMobsimImpl:86 Network seems to be multimodal. Create car-only network which is handed over to PersonPrepareForSim.
2024-12-19T07:50:45,342  INFO NetworkImpl:165  node # 1
2024-12-19T07:50:45,342  INFO NetworkImpl:165  node # 4
2024-12-19T07:50:45,342  INFO NetworkImpl:165  node # 16
2024-12-19T07:50:45,342  INFO NetworkImpl:165  node # 64
2024-12-19T07:50:45,342  INFO NetworkImpl:165  node # 256
2024-12-19T07:50:45,342  INFO NetworkImpl:165  node # 1024
2024-12-19T07:50:45,343  INFO NetworkImpl:165  node # 4096
2024-12-19T07:50:45,345  INFO NetworkImpl:165  node # 16384
2024-12-19T07:50:45,347  INFO NetworkImpl:161  link # 1
2024-12-19T07:50:45,347  INFO NetworkImpl:161  link # 4
2024-12-19T07:50:45,347  INFO NetworkImpl:161  link # 16
2024-12-19T07:50:45,347  INFO NetworkImpl:161  link # 64
2024-12-19T07:50:45,347  INFO NetworkImpl:161  link # 256
2024-12-19T07:50:45,349  INFO NetworkImpl:161  link # 1024
2024-12-19T07:50:45,354  INFO NetworkImpl:161  link # 4096
2024-12-19T07:50:45,374  INFO NetworkImpl:161  link # 16384
2024-12-19T07:50:45,429  INFO RandomizingTimeDistanceTravelDisutilityFactory:86  sigma: 3.0; resulting normalization: 0.011108996538242306
2024-12-19T07:50:45,433  INFO RandomizingTimeDistanceTravelDisutilityFactory:86  sigma: 3.0; resulting normalization: 0.011108996538242306
2024-12-19T07:50:45,436  INFO Counter:70 [PersonPrepareForSim] handled person # 2
2024-12-19T07:50:45,436  INFO Counter:70 [PersonPrepareForSim] handled person # 1
[...]
2024-12-19T07:50:45,437  INFO Counter:70 [PersonPrepareForSim] handled person # 64
2024-12-19T07:50:45,437  INFO Counter:70 [PersonPrepareForSim] handled person # 128
2024-12-19T07:50:45,438  INFO Counter:75 [PersonPrepareForSim] handled person # 150
2024-12-19T07:50:45,459  INFO MobsimListenerManager:50 calling addQueueSimulationListener
2024-12-19T07:50:45,459  INFO MobsimListenerManager:54   assigned class org.matsim.core.mobsim.framework.listeners.MobsimListener to interface org.matsim.core.mobsim.framework.listeners.MobsimListener
2024-12-19T07:50:45,459  INFO MobsimListenerManager:54   assigned class org.matsim.core.mobsim.framework.listeners.MobsimListener to interface org.matsim.vis.snapshotwriters.SnapshotWriterManager
2024-12-19T07:50:45,460  INFO MobsimListenerManager:54   assigned class org.matsim.core.mobsim.framework.listeners.MobsimListener to interface org.matsim.core.mobsim.framework.listeners.MobsimAfterSimStepListener
2024-12-19T07:50:45,460  INFO MobsimListenerManager:54   assigned class org.matsim.core.mobsim.framework.listeners.MobsimListener to interface org.matsim.core.mobsim.framework.listeners.MobsimInitializedListener
2024-12-19T07:50:45,460  INFO MobsimListenerManager:54   assigned class org.matsim.core.mobsim.framework.listeners.MobsimListener to interface org.matsim.core.mobsim.framework.listeners.MobsimBeforeCleanupListener
2024-12-19T07:50:45,461  INFO QSimProvider:131 Added MobsimEngine class org.matsim.core.mobsim.qsim.ActivityEngineDefaultImpl
2024-12-19T07:50:45,461  INFO QSimProvider:137 Added Activityhandler class org.matsim.core.mobsim.qsim.ActivityEngineDefaultImpl
2024-12-19T07:50:45,527  INFO QSimProvider:143 Added DepartureHandler class org.matsim.core.mobsim.qsim.qnetsimengine.VehicularDepartureHandler
2024-12-19T07:50:45,527  INFO QSimProvider:131 Added MobsimEngine class org.matsim.core.mobsim.qsim.qnetsimengine.QNetsimEngineWithThreadpool
2024-12-19T07:50:45,527  INFO QSimProvider:131 Added MobsimEngine class org.matsim.core.mobsim.qsim.DefaultTeleportationEngine
2024-12-19T07:50:45,527  INFO QSimProvider:143 Added DepartureHandler class org.matsim.core.mobsim.qsim.DefaultTeleportationEngine
2024-12-19T07:50:45,527  INFO QSimProvider:149 Added AgentSource class org.matsim.core.mobsim.qsim.agents.PopulationAgentSource
2024-12-19T07:50:45,527  INFO MobsimListenerManager:50 calling addQueueSimulationListener
2024-12-19T07:50:45,528  INFO MobsimListenerManager:54   assigned class org.matsim.core.mobsim.framework.listeners.MobsimListener to interface org.matsim.core.mobsim.framework.listeners.MobsimBeforeSimStepListener
2024-12-19T07:50:45,528  INFO MobsimListenerManager:54   assigned class org.matsim.core.mobsim.framework.listeners.MobsimListener to interface org.matsim.core.mobsim.framework.listeners.MobsimListener
2024-12-19T07:50:45,528  INFO MobsimListenerManager:54   assigned class org.matsim.core.mobsim.framework.listeners.MobsimListener to interface org.matsim.core.mobsim.qsim.messagequeueengine.MessageQueueEngine
2024-12-19T07:50:45,528  INFO QSimProvider:155 Added MobsimListener class org.matsim.core.mobsim.qsim.messagequeueengine.MessageQueueEngine
2024-12-19T07:50:45,553  INFO AbstractQNetsimEngine:426 Assigned 27759 nodes and 64052 links to QSimEngineRunner #0
2024-12-19T07:50:45,555  INFO AbstractQNetsimEngine:364 SIMULATION (QNetsimEngine) AT 07:37:18 : #links=1 #nodes=1
2024-12-19T07:50:45,555  INFO QSim:566 SIMULATION (NEW QSim) AT 07:37:18 : #Veh=150 lost=0 simT=0.0s realT=0s; (s/r): 0.0
2024-12-19T07:50:45,620  INFO AbstractQNetsimEngine:364 SIMULATION (QNetsimEngine) AT 08:00:00 : #links=19 #nodes=10
2024-12-19T07:50:45,620  INFO QSim:566 SIMULATION (NEW QSim) AT 08:00:00 : #Veh=150 lost=0 simT=1362.0s realT=0s; (s/r): Infinity
2024-12-19T07:50:45,825  INFO AbstractQNetsimEngine:364 SIMULATION (QNetsimEngine) AT 09:00:00 : #links=45 #nodes=2
2024-12-19T07:50:45,825  INFO QSim:566 SIMULATION (NEW QSim) AT 09:00:00 : #Veh=150 lost=0 simT=4962.0s realT=0s; (s/r): Infinity
2024-12-19T07:50:45,952  INFO EventsManagerImpl:115  event # 65536
2024-12-19T07:50:45,993  INFO AbstractQNetsimEngine:364 SIMULATION (QNetsimEngine) AT 10:00:00 : #links=43 #nodes=2
2024-12-19T07:50:45,993  INFO QSim:566 SIMULATION (NEW QSim) AT 10:00:00 : #Veh=150 lost=0 simT=8562.0s realT=0s; (s/r): Infinity
2024-12-19T07:50:46,179  INFO AbstractQNetsimEngine:364 SIMULATION (QNetsimEngine) AT 11:00:00 : #links=42 #nodes=0
2024-12-19T07:50:46,180  INFO QSim:566 SIMULATION (NEW QSim) AT 11:00:00 : #Veh=150 lost=0 simT=12162.0s realT=0s; (s/r): Infinity
2024-12-19T07:50:46,363  INFO AbstractQNetsimEngine:364 SIMULATION (QNetsimEngine) AT 12:00:00 : #links=9 #nodes=0
2024-12-19T07:50:46,363  INFO QSim:566 SIMULATION (NEW QSim) AT 12:00:00 : #Veh=150 lost=0 simT=15762.0s realT=0s; (s/r): Infinity
2024-12-19T07:50:46,539  INFO AbstractQNetsimEngine:364 SIMULATION (QNetsimEngine) AT 13:00:00 : #links=9 #nodes=0
2024-12-19T07:50:46,539  INFO QSim:566 SIMULATION (NEW QSim) AT 13:00:00 : #Veh=150 lost=0 simT=19362.0s realT=1s; (s/r): 19362.0
2024-12-19T07:50:46,706  INFO AbstractQNetsimEngine:364 SIMULATION (QNetsimEngine) AT 14:00:00 : #links=9 #nodes=0
2024-12-19T07:50:46,706  INFO QSim:566 SIMULATION (NEW QSim) AT 14:00:00 : #Veh=150 lost=0 simT=22962.0s realT=1s; (s/r): 22962.0
2024-12-19T07:50:46,854  INFO AbstractQNetsimEngine:364 SIMULATION (QNetsimEngine) AT 15:00:00 : #links=0 #nodes=0
2024-12-19T07:50:46,855  INFO QSim:566 SIMULATION (NEW QSim) AT 15:00:00 : #Veh=150 lost=0 simT=26562.0s realT=1s; (s/r): 26562.0
2024-12-19T07:50:47,021  INFO AbstractQNetsimEngine:364 SIMULATION (QNetsimEngine) AT 16:00:00 : #links=0 #nodes=0
2024-12-19T07:50:47,021  INFO QSim:566 SIMULATION (NEW QSim) AT 16:00:00 : #Veh=150 lost=0 simT=30162.0s realT=1s; (s/r): 30162.0
2024-12-19T07:50:47,186  INFO AbstractQNetsimEngine:364 SIMULATION (QNetsimEngine) AT 17:00:00 : #links=14 #nodes=8
2024-12-19T07:50:47,186  INFO QSim:566 SIMULATION (NEW QSim) AT 17:00:00 : #Veh=150 lost=0 simT=33762.0s realT=1s; (s/r): 33762.0
2024-12-19T07:50:47,373  INFO AbstractQNetsimEngine:364 SIMULATION (QNetsimEngine) AT 18:00:00 : #links=34 #nodes=0
2024-12-19T07:50:47,373  INFO QSim:566 SIMULATION (NEW QSim) AT 18:00:00 : #Veh=150 lost=0 simT=37362.0s realT=1s; (s/r): 37362.0
2024-12-19T07:50:47,572  INFO AbstractQNetsimEngine:364 SIMULATION (QNetsimEngine) AT 19:00:00 : #links=54 #nodes=2
2024-12-19T07:50:47,572  INFO QSim:566 SIMULATION (NEW QSim) AT 19:00:00 : #Veh=142 lost=0 simT=40962.0s realT=2s; (s/r): 20481.0
2024-12-19T07:50:47,765  INFO AbstractQNetsimEngine:364 SIMULATION (QNetsimEngine) AT 20:00:00 : #links=28 #nodes=0
2024-12-19T07:50:47,765  INFO QSim:566 SIMULATION (NEW QSim) AT 20:00:00 : #Veh=99 lost=0 simT=44562.0s realT=2s; (s/r): 22281.0
2024-12-19T07:50:47,925  INFO AbstractQNetsimEngine:364 SIMULATION (QNetsimEngine) AT 21:00:00 : #links=12 #nodes=0
2024-12-19T07:50:47,925  INFO QSim:566 SIMULATION (NEW QSim) AT 21:00:00 : #Veh=26 lost=0 simT=48162.0s realT=2s; (s/r): 24081.0
2024-12-19T07:50:48,092  INFO AbstractQNetsimEngine:364 SIMULATION (QNetsimEngine) AT 22:00:00 : #links=12 #nodes=0
2024-12-19T07:50:48,092  INFO QSim:566 SIMULATION (NEW QSim) AT 22:00:00 : #Veh=25 lost=0 simT=51762.0s realT=2s; (s/r): 25881.0
2024-12-19T07:50:48,253  INFO AbstractQNetsimEngine:364 SIMULATION (QNetsimEngine) AT 23:00:00 : #links=8 #nodes=0
2024-12-19T07:50:48,253  INFO QSim:566 SIMULATION (NEW QSim) AT 23:00:00 : #Veh=16 lost=0 simT=55362.0s realT=2s; (s/r): 27681.0
2024-12-19T07:50:48,410  INFO AbstractQNetsimEngine:364 SIMULATION (QNetsimEngine) AT 24:00:00 : #links=6 #nodes=0
2024-12-19T07:50:48,410  INFO QSim:566 SIMULATION (NEW QSim) AT 24:00:00 : #Veh=15 lost=0 simT=58962.0s realT=2s; (s/r): 29481.0
2024-12-19T07:50:48,516  INFO Gbl:196 Thread performance: Thread=class org.matsim.core.events.SimStepParallelEventsManagerImpl$ProcessEventsRunnable0  cpu-time=0.989309629sec
2024-12-19T07:50:48,516  INFO AbstractController$9:237 ### ITERATION 1 fires after mobsim event
2024-12-19T07:50:48,517  INFO ControlerListenerManagerImpl:269 calling notifyAfterMobsim on org.matsim.analysis.LegTimesControlerListener with priority 0.0
2024-12-19T07:50:48,517  INFO LegTimesControlerListener:51 [1] average trip (probably: leg) duration is: 12946 seconds = 03:35:46
2024-12-19T07:50:48,517  INFO ControlerListenerManagerImpl:269 calling notifyAfterMobsim on org.matsim.core.events.MobsimScopeEventHandling with priority 0.0
2024-12-19T07:50:48,518  INFO ControlerListenerManagerImpl:269 calling notifyAfterMobsim on org.matsim.core.scoring.EventsToActivities$1 with priority 0.0
2024-12-19T07:50:48,518  INFO ControlerListenerManagerImpl:272 [it.1] all ControlerAfterMobsimListeners called.
2024-12-19T07:50:48,519  INFO AbstractController$4:162 ### ITERATION 1 fires scoring event
2024-12-19T07:50:48,519  INFO ControlerListenerManagerImpl:197 calling notifyScoring on org.matsim.core.scoring.PlansScoringImpl with priority 0.0
2024-12-19T07:50:48,519  INFO NewScoreAssignerImpl:58 it: 1 msaStart: null
2024-12-19T07:50:48,519  INFO ControlerListenerManagerImpl:209 [it.1] all ControlerScoringListeners called.
2024-12-19T07:50:48,519  INFO AbstractController$5:170 ### ITERATION 1 fires iteration end event
2024-12-19T07:50:48,520  INFO ControlerListenerManagerImpl:172 calling notifyIterationEnds on org.matsim.core.controler.corelisteners.EventsHandlingImpl with priority 0.0
2024-12-19T07:50:48,520  INFO EventsManagerImpl:159 removing Event-Handler: org.matsim.core.events.algorithms.EventWriterXML
2024-12-19T07:50:48,520  INFO EventsManagerImpl:159 removing Event-Handler: org.matsim.core.events.algorithms.EventWriterXML
2024-12-19T07:50:48,521  INFO ControlerListenerManagerImpl:172 calling notifyIterationEnds on org.matsim.core.scoring.PlansScoringImpl with priority 0.0
2024-12-19T07:50:48,521  INFO ControlerListenerManagerImpl:180 calling notifyIterationEnds on org.matsim.counts.CountsControlerListener with priority 0.0
2024-12-19T07:50:48,521  INFO ControlerListenerManagerImpl:180 calling notifyIterationEnds on org.matsim.analysis.ModeStatsControlerListener with priority 0.0
2024-12-19T07:50:48,521  INFO ModeStatsControlerListener:133 Mode shares over all 300.0 trips found. MainModeIdentifier: class org.matsim.core.router.DefaultAnalysisMainModeIdentifier
2024-12-19T07:50:48,522  INFO ModeStatsControlerListener:140 -- mode share of mode car = 1.0
2024-12-19T07:50:48,607  INFO ControlerListenerManagerImpl:180 calling notifyIterationEnds on org.matsim.analysis.ScoreStatsControlerListener with priority 0.0
2024-12-19T07:50:48,608  INFO ScoreStatsControlerListener:154 -- avg. score of the executed plan of each agent: -4897.441273809419
2024-12-19T07:50:48,608  INFO ScoreStatsControlerListener:155 -- avg. score of the worst plan of each agent: -4925.849344212899
2024-12-19T07:50:48,608  INFO ScoreStatsControlerListener:156 -- avg. of the avg. plan score per agent: -4897.574766527595
2024-12-19T07:50:48,609  INFO ScoreStatsControlerListener:157 -- avg. score of the best plan of each agent: -4869.300188842289
2024-12-19T07:50:48,651  INFO ControlerListenerManagerImpl:180 calling notifyIterationEnds on org.matsim.analysis.IterationTravelStatsControlerListener with priority 0.0
2024-12-19T07:50:48,652  INFO TravelDistanceStats:115 -- average leg distance per plan (executed plans only): 122493.90748991347 meters
2024-12-19T07:50:48,653  INFO TravelDistanceStats:116 average leg distance per Person (executed plans only): 244987.81497982694 meters (statistic on all 300 legs which have a finite distance)
2024-12-19T07:50:48,653  INFO TravelDistanceStats:117 -- average trip distance per plan (executed plans only): 122493.90748991347 meters
2024-12-19T07:50:48,653  INFO TravelDistanceStats:118 average trip distance per Person (executed plans only): 244987.81497982694 meters (statistic on all 300 trips which have a finite distance)
2024-12-19T07:50:48,653  INFO TravelDistanceStats:119 (TravelDistanceStats takes an average over all legs where the simulation reports travelled (network) distances
2024-12-19T07:50:48,653  INFO TravelDistanceStats:120 (and teleported legs whose route contains a distance.)
2024-12-19T07:50:48,772  INFO ActivityWriter:39 Writing all Activities to activitiescsv
2024-12-19T07:50:48,777  INFO ActivityWriter:59 ...done
2024-12-19T07:50:48,778  INFO ControlerListenerManagerImpl:180 calling notifyIterationEnds on org.matsim.analysis.LegHistogramListener with priority 0.0
2024-12-19T07:50:48,781  INFO LegHistogramListener:73 number of legs:	300	100%
2024-12-19T07:50:48,781  INFO LegHistogramListener:80 number of car legs:	300	100.0%
2024-12-19T07:50:48,890  INFO ControlerListenerManagerImpl:180 calling notifyIterationEnds on org.matsim.analysis.LinkStatsControlerListener with priority 0.0
2024-12-19T07:50:48,890  INFO ControlerListenerManagerImpl:184 [it.1] all ControlerIterationEndsListeners called.
2024-12-19T07:50:48,951  INFO AbstractController:184 ### ITERATION 1 ENDS
2024-12-19T07:50:48,951  INFO AbstractController:185 ###################################################
2024-12-19T07:50:48,951  INFO MatsimRuntimeModifications:80 S H U T D O W N   ---   start shutdown.
2024-12-19T07:50:48,952  INFO ControlerListenerManagerImpl:128 calling notifyShutdown on org.matsim.core.controler.corelisteners.EventsHandlingImpl with priority 0.0
2024-12-19T07:50:48,952  INFO ControlerListenerManagerImpl:128 calling notifyShutdown on org.matsim.core.controler.corelisteners.DumpDataAtEndImpl with priority 0.0
2024-12-19T07:50:48,955  INFO Counter:70 [PopulationWriter] dumped person # 1
2024-12-19T07:50:48,955  INFO Counter:70 [PopulationWriter] dumped person # 2
2024-12-19T07:50:48,955  INFO Counter:70 [PopulationWriter] dumped person # 4
2024-12-19T07:50:48,955  INFO Counter:70 [PopulationWriter] dumped person # 8
2024-12-19T07:50:48,956  INFO Counter:70 [PopulationWriter] dumped person # 16
2024-12-19T07:50:48,956  INFO Counter:70 [PopulationWriter] dumped person # 32
2024-12-19T07:50:48,956  INFO Counter:70 [PopulationWriter] dumped person # 64
2024-12-19T07:50:48,955  INFO Counter:70 [ParallelPopulationWriterV6] dumped person # 1
2024-12-19T07:50:48,956  INFO Counter:70 [ParallelPopulationWriterV6] dumped person # 2
2024-12-19T07:50:48,956  INFO Counter:70 [ParallelPopulationWriterV6] dumped person # 4
2024-12-19T07:50:48,957  INFO Counter:70 [PopulationWriter] dumped person # 128
2024-12-19T07:50:48,957  INFO Counter:70 [ParallelPopulationWriterV6] dumped person # 8
2024-12-19T07:50:48,957  INFO Counter:70 [ParallelPopulationWriterV6] dumped person # 16
2024-12-19T07:50:48,959  INFO Counter:70 [ParallelPopulationWriterV6] dumped person # 32
2024-12-19T07:50:48,962  INFO Counter:70 [ParallelPopulationWriterV6] dumped person # 64
2024-12-19T07:50:48,966  INFO Counter:70 [ParallelPopulationWriterV6] dumped person # 128
2024-12-19T07:50:48,967  INFO Counter:75 [ParallelPopulationWriterV6] dumped person # 150
2024-12-19T07:50:48,967  INFO PopulationWriter:150 Population written to: scenarios/equil/output/run_20241219_075035/output_plans.xml.gz
2024-12-19T07:50:48,968  INFO Counter:75 [PopulationWriter] dumped person # 150
2024-12-19T07:50:48,969  INFO NetworkWriter:70 Writing network to file: scenarios/equil/output/run_20241219_075035/output_network.xml.gz...
2024-12-19T07:50:49,668  INFO NetworkWriter:73 done.
2024-12-19T07:50:49,675  INFO Config:550 setting context to [file:/home/opc/matsim-example-project/]
2024-12-19T07:50:49,677  INFO Config:550 setting context to [file:/home/opc/matsim-example-project/]
2024-12-19T07:50:49,684  INFO Config:550 setting context to [file:/home/opc/matsim-example-project/]
2024-12-19T07:50:49,686  INFO Config:550 setting context to [file:/home/opc/matsim-example-project/]
2024-12-19T07:50:49,687  INFO Config:550 setting context to [file:/home/opc/matsim-example-project/]
2024-12-19T07:50:49,689  INFO Config:550 setting context to [file:/home/opc/matsim-example-project/]
2024-12-19T07:50:49,691  INFO Config:550 setting context to [file:/home/opc/matsim-example-project/]
2024-12-19T07:50:49,692  INFO Config:550 setting context to [file:/home/opc/matsim-example-project/]
2024-12-19T07:50:49,694  INFO Config:550 setting context to [file:/home/opc/matsim-example-project/]
2024-12-19T07:50:49,695  INFO Config:550 setting context to [file:/home/opc/matsim-example-project/]
2024-12-19T07:50:49,696  INFO Config:550 setting context to [file:/home/opc/matsim-example-project/]
2024-12-19T07:50:49,698  INFO Config:550 setting context to [file:/home/opc/matsim-example-project/]
2024-12-19T07:50:49,699  INFO Config:550 setting context to [file:/home/opc/matsim-example-project/]
2024-12-19T07:50:49,700  INFO Config:550 setting context to [file:/home/opc/matsim-example-project/]
2024-12-19T07:50:49,707  INFO Config:550 setting context to [file:/home/opc/matsim-example-project/]
2024-12-19T07:50:49,710  INFO Config:550 setting context to [file:/home/opc/matsim-example-project/]
2024-12-19T07:50:49,711  INFO Config:550 setting context to [file:/home/opc/matsim-example-project/]
2024-12-19T07:50:49,713  INFO Config:550 setting context to [file:/home/opc/matsim-example-project/]
2024-12-19T07:50:49,715  INFO Config:550 setting context to [file:/home/opc/matsim-example-project/]
2024-12-19T07:50:49,720  INFO Config:550 setting context to [file:/home/opc/matsim-example-project/]
2024-12-19T07:50:49,721  INFO Config:550 setting context to [file:/home/opc/matsim-example-project/]
2024-12-19T07:50:49,722  INFO Config:550 setting context to [file:/home/opc/matsim-example-project/]
2024-12-19T07:50:49,723  INFO Config:550 setting context to [file:/home/opc/matsim-example-project/]
2024-12-19T07:50:49,724  INFO Config:550 setting context to [file:/home/opc/matsim-example-project/]
2024-12-19T07:50:49,726  INFO Config:550 setting context to [file:/home/opc/matsim-example-project/]
2024-12-19T07:50:49,727  INFO Config:550 setting context to [file:/home/opc/matsim-example-project/]
2024-12-19T07:50:49,730  INFO MatsimVehicleWriter:49 about to write vehicles to: scenarios/equil/output/run_20241219_075035/output_vehicles.xml.gz
2024-12-19T07:50:49,730  INFO VehicleWriterV2:64 about to write vehicles to: scenarios/equil/output/run_20241219_075035/output_vehicles.xml.gz
2024-12-19T07:50:49,733  INFO MatsimVehicleWriter:49 about to write vehicles to: scenarios/equil/output/run_20241219_075035/output_allVehicles.xml.gz
2024-12-19T07:50:49,733  INFO VehicleWriterV2:64 about to write vehicles to: scenarios/equil/output/run_20241219_075035/output_allVehicles.xml.gz
2024-12-19T07:50:49,735  INFO HouseholdsWriterV10:66 about to write  households to: scenarios/equil/output/run_20241219_075035/output_households.xml.gz
2024-12-19T07:50:49,735  INFO Counter:75 [HouseholdsWriter] wrote household # 0
2024-12-19T07:50:49,740  INFO CountsWriterV2:45 Write Counts to scenarios/equil/output/run_20241219_075035/output_counts.xml.gz
2024-12-19T07:50:49,743  INFO ControlerListenerManagerImpl:135 calling notifyShutdown on org.matsim.analysis.ScoreStatsControlerListener with priority 0.0
2024-12-19T07:50:49,743  INFO ControlerListenerManagerImpl:135 calling notifyShutdown on org.matsim.analysis.IterationTravelStatsControlerListener with priority 0.0
2024-12-19T07:50:49,744  INFO PersonWriter:36 Writing all Persons to personscsv
2024-12-19T07:50:49,748  INFO PersonWriter:54 ...done
2024-12-19T07:50:49,748  INFO ControlerListenerManagerImpl:135 calling notifyShutdown on org.matsim.analysis.LinkStatsControlerListener with priority 0.0
2024-12-19T07:50:50,608  INFO ControlerListenerManagerImpl:138 all ControlerShutdownListeners called.
2024-12-19T07:50:50,608  INFO MatsimRuntimeModifications:103 S H U T D O W N   ---   shutdown completed.
2024-12-19T07:50:50,608  INFO OutputDirectoryLogging:172 closing the logfile, i.e. messages sent to the logger after this message are not written to the logfile.
