2024-12-18T05:11:09,550  INFO Gbl:64 JVM: 17.0.13; Red Hat, Inc.; mixed mode, sharing; 64-bit
2024-12-18T05:11:09,551  INFO Gbl:68 OS: Linux; 5.15.0-301.163.5.2.el8uek.x86_64; amd64
2024-12-18T05:11:09,551  INFO Gbl:71 CPU cores: 8
2024-12-18T05:11:09,553  INFO Gbl:72 max. Memory: 16008.0MB (16785604608B)
2024-12-18T05:11:09,554  INFO Gbl:114 MATSim-Build: ree04702ba7fc026b6bdf5a6ea52a749cf0c790e1 (2024-04-13 15:48:32)
2024-12-18T05:11:09,554  INFO Gbl:76 Command: org.matsim.project.RunMatsim
2024-12-18T05:11:09,557  INFO ControlerListenerManagerImpl:112 calling notifyStartup on org.matsim.core.controler.ControlerDefaultsModule$1 with priority 0.0
2024-12-18T05:11:09,557  INFO MemoryObserver:42 used RAM: 689 MB  free: 1502 MB  total: 2192 MB
2024-12-18T05:11:09,597  INFO ControlerListenerManagerImpl:112 calling notifyStartup on org.matsim.guice.DependencyGraphControlerListener with priority 0.0
2024-12-18T05:11:09,688  INFO ControlerListenerManagerImpl:112 calling notifyStartup on org.matsim.counts.CountsControlerListener with priority 0.0
2024-12-18T05:11:09,689  INFO ControlerListenerManagerImpl:112 calling notifyStartup on org.matsim.analysis.ModeStatsControlerListener with priority 0.0
2024-12-18T05:11:09,689  INFO ControlerListenerManagerImpl:112 calling notifyStartup on org.matsim.analysis.ScoreStatsControlerListener with priority 0.0
2024-12-18T05:11:09,690  INFO ControlerListenerManagerImpl:115 all ControlerStartupListeners called.
2024-12-18T05:11:09,690  INFO ControlerUtils:79 config dump before iterations start
2024-12-18T05:11:09,705  INFO ControlerUtils:83 

<?xml version="1.0" encoding="UTF-8"?>
<!DOCTYPE config SYSTEM "http://www.matsim.org/files/dtd/config_v2.dtd">
<config>
	<module name="changeMode" >
		<!-- Defines whether car availability is considered be considered or not. An agent has no car only if it has no license, or never access to a car. Default: true -->
		<param name="ignoreCarAvailability" value="true" />
		<!-- Defines the mode switch behavior. Possible values [fromAllModesToSpecifiedModes, fromSpecifiedModesToSpecifiedModes] Default: fromSpecifiedModesToSpecifiedModes. -->
		<param name="modeSwitchBehavior" value="fromSpecifiedModesToSpecifiedModes" />
		<!-- Defines all the modes available, including chain-based modes, seperated by commas -->
		<param name="modes" value="car,pt" />
	</module>
	<module name="controller" >
		<!-- Defines what should be done with the ITERS directory when a simulation finished successfully -->
		<param name="cleanItersAtEnd" value="keep" />
		<!-- Compression algorithm to use when writing out data to files. Possible values: [none, gzip, lz4, zst] -->
		<param name="compressionType" value="gzip" />
		<!-- Sets the interval in which graphs are generated. Default is 1. If set to 0, no graphs are generated. The generation of graphs usually takes a small amount of time that does not have any weight in big simulations, but add a significant overhead in smaller runs or in test cases where the graphical output is not even requested. -->
		<param name="createGraphsInterval" value="1" />
		<!-- Defines when the scoring functions for the population are created. Default=IterationStarts. Possible values: [IterationStarts, BeforeMobsim] -->
		<param name="createScoringFunctionType" value="IterationStarts" />
		<!-- true if at the end of a run, plans, network, config etc should be dumped to a file -->
		<param name="dumpDataAtEnd" value="true" />
		<!-- Default=false. If enabled, the router takes travel times needed for turning moves into account. Can only be used with Dijkstra routing. Cannot be used when TravelTimeCalculator.separateModes is enabled. -->
		<param name="enableLinkToLinkRouting" value="false" />
		<!-- Default=xml; Specifies the file format for writing events. Currently supported: [xml, pb, json]
		Multiple values can be specified separated by commas (','). -->
		<param name="eventsFileFormat" value="xml" />
		<!-- Default=0. First Iteration of a simulation. -->
		<param name="firstIteration" value="0" />
		<!-- Default=1000. Last Iteration of a simulation. -->
		<param name="lastIteration" value="1" />
		<!-- Defines the interval for printing memory usage to the log in [seconds]. Must be positive. Defaults to 60. -->
		<param name="memoryObserverInterval" value="60" />
		<!-- Defines which mobility simulation will be used. Currently supported: [qsim, JDEQSim, hermes]
		Depending on the chosen mobsim, you'll have to add additional config modules to configure the corresponding mobsim.
		For 'qsim', add a module 'qsim' to the config. -->
		<param name="mobsim" value="qsim" />
		<param name="outputDirectory" value="scenarios/equil/output/run_20241218_051102" />
		<!-- Possible values: failIfDirectoryExists,overwriteExistingFiles,deleteDirectoryIfExists -->
		<param name="overwriteFiles" value="deleteDirectoryIfExists" />
		<!-- The type of routing (least cost path) algorithm used, may have the values: [Dijkstra, AStarLandmarks, SpeedyALT] -->
		<param name="routingAlgorithmType" value="SpeedyALT" />
		<!-- An identifier for the current run which is used as prefix for output files and mentioned in output xml files etc. -->
		<param name="runId" value="null" />
		<!-- Comma-separated list of visualizer output file formats. `transims' and `otfvis'. -->
		<param name="snapshotFormat" value="" />
		<!-- iterationNumber % writeEventsInterval == 0 defines in which iterations events are written to a file. `0' disables events writing completely. -->
		<param name="writeEventsInterval" value="50" />
		<!-- iterationNumber % writePlansInterval == 0 defines (hopefully) in which iterations plans are written to a file. `0' disables plans writing completely.  Some plans in early iterations are always written -->
		<param name="writePlansInterval" value="50" />
		<!-- iterationNumber % writeSnapshotsInterval == 0 defines in which iterations snapshots are written to a file. `0' disables snapshots writing completely -->
		<param name="writeSnapshotsInterval" value="1" />
		<!-- iterationNumber % writeEventsInterval == 0 defines in which iterations trips CSV are written to a file. `0' disables trips writing completely. -->
		<param name="writeTripsInterval" value="50" />
	</module>
	<module name="counts" >
		<!-- Transport modes that will be respected for the counts comparison. 'car' is default, which includes also bussed from the pt simulation module. Use this parameter in combination with 'filterModes' = true! -->
		<param name="analyzedModes" value="car" />
		<!-- Specifies over how many iterations the link volumes should be averaged that are used for the counts comparison. Use 1 or 0 to only use the link volumes of a single iteration. This values cannot be larger than the value specified for writeCountsInterval -->
		<param name="averageCountsOverIterations" value="5" />
		<!-- factor by which to re-scale the simulated values.  necessary when simulation runs with something different from 100%.  needs to be adapted manually -->
		<param name="countsScaleFactor" value="1.0" />
		<!-- distance to distanceFilterCenterNode to include counting stations. The unit of distance is the Euclidean distance implied by the coordinate system -->
		<param name="distanceFilter" value="null" />
		<!-- node id for center node of distance filter -->
		<param name="distanceFilterCenterNode" value="null" />
		<!-- If true, link counts from legs performed on modes not included in the 'analyzedModes' parameter are ignored. -->
		<param name="filterModes" value="false" />
		<!-- The Coordinates Reference System in which the coordinates are expressed in the input file. At import, the coordinates will be converted to the coordinate system defined in "global", and willbe converted back at export. If not specified, no conversion happens. -->
		<param name="inputCRS" value="null" />
		<!-- input file name to counts package -->
		<param name="inputCountsFile" value="null" />
		<!-- possible values: `html', `txt', `all' -->
		<param name="outputformat" value="txt" />
		<!-- Specifies how often the counts comparison should be calculated and written. -->
		<param name="writeCountsInterval" value="10" />
	</module>
	<module name="eventsManager" >
		<!-- Estimated number of events during mobsim run. An optional optimization hint for the framework. -->
		<param name="estimatedNumberOfEvents" value="null" />
		<!-- Size of the events Queue. Increase for very large scenarios -->
		<param name="eventsQueueSize" value="131072" />
		<!-- Number of threads for parallel events handler. _null_ means the framework decides by itself. 0 is currently not possible. -->
		<param name="numberOfThreads" value="null" />
		<!-- If enabled, each event handler is assigned to its own thread. Note that enabling this feature disabled the numberOfThreads option! This feature is still experimental! -->
		<param name="oneThreadPerHandler" value="false" />
		<!-- If enabled, it is ensured that all events that are created during a time step of the mobility simulation are processed before the next time step is simulated. E.g. neccessary when within-day replanning is used. -->
		<param name="synchronizeOnSimSteps" value="true" />
	</module>
	<module name="facilities" >
		<!-- This defines how facilities should be created. Possible values: none fromFile setInScenario onePerActivityLinkInPlansFile onePerActivityLinkInPlansFileExceptWhenCoordinatesAreGiven onePerActivityLocationInPlansFile  -->
		<param name="facilitiesSource" value="none" />
		<!-- A prefix to be used for auto-generated IDs. -->
		<param name="idPrefix" value="f_auto_" />
		<!-- The Coordinates Reference System in which the coordinates are expressed in the input file. At import, the coordinates will be converted to the coordinate system defined in "global", and willbe converted back at export. If not specified, no conversion happens. -->
		<param name="inputCRS" value="null" />
		<param name="inputFacilitiesFile" value="null" />
		<param name="inputFacilityAttributesFile" value="null" />
		<param name="insistingOnUsingDeprecatedFacilitiesAttributeFile" value="false" />
	</module>
	<module name="global" >
		<param name="coordinateSystem" value="EPSG:4326" />
		<param name="defaultDelimiter" value=";" />
		<param name="insistingOnDeprecatedConfigVersion" value="true" />
		<!-- "global" number of threads.  This number is used, e.g., for replanning, but NOT in QSim.  This can typically be set to as many cores as you have available, or possibly even slightly more. -->
		<param name="numberOfThreads" value="2" />
		<param name="randomSeed" value="4711" />
	</module>
	<module name="hermes" >
		<!-- Simulation End Time -->
		<param name="endTime" value="30:00:00" />
		<param name="flowCapacityFactor" value="1.0" />
		<param name="mainMode" value="car" />
		<param name="storageCapacityFactor" value="1.0" />
		<!-- time in seconds.  Time after which the frontmost vehicle on a link is called `stuck' if it does not move. Set to Integer.MAX_VALUE to disable this behavior -->
		<param name="stuckTime" value="10" />
		<!-- treats PT as deterministic. PT vehicles will run with a steady speed. Should be used with separate network layers for PT and other network modes. -->
		<param name="useDeterministicPt" value="false" />
	</module>
	<module name="households" >
		<param name="inputFile" value="null" />
		<param name="inputHouseholdAttributesFile" value="null" />
		<param name="insistingOnUsingDeprecatedHouseholdsAttributeFile" value="false" />
	</module>
	<module name="jdeqsim" >
		<param name="carSize" value="7.5" />
		<param name="endTime" value="undefined" />
		<param name="flowCapacityFactor" value="1.0" />
		<param name="gapTravelSpeed" value="15.0" />
		<param name="minimumInFlowCapacity" value="1800.0" />
		<param name="squeezeTime" value="1800.0" />
		<param name="storageCapacityFactor" value="1.0" />
	</module>
	<module name="linkStats" >
		<!-- Specifies over how many iterations the link volumes should be averaged that are used for the link statistics. Use 1 or 0 to only use the link volumes of a single iteration. This values cannot be larger than the value specified for writeLinkStatsInterval -->
		<param name="averageLinkStatsOverIterations" value="5" />
		<!-- Specifies how often the link stats should be calculated and written. Use 0 to disable the generation of link stats. -->
		<param name="writeLinkStatsInterval" value="50" />
	</module>
	<module name="network" >
		<!-- The Coordinates Reference System in which the coordinates are expressed in the input file. At import, the coordinates will be converted to the coordinate system defined in "global", and willbe converted back at export. If not specified, no conversion happens. -->
		<param name="inputCRS" value="null" />
		<param name="inputChangeEventsFile" value="null" />
		<param name="inputNetworkFile" value="output/sf_network.xml.gz" />
		<param name="laneDefinitionsFile" value="null" />
		<param name="timeVariantNetwork" value="false" />
	</module>
	<module name="planInheritance" >
		<!-- Specifies whether or not PlanInheritance Information should be tracked. -->
		<param name="enabled" value="false" />
	</module>
	<module name="plans" >
		<!-- String: minOfDurationAndEndTime tryEndTimeThenDuration endTimeOnly. Anything besides minOfDurationAndEndTime will internally use a different (simpler) version of the TimeAllocationMutator. -->
		<param name="activityDurationInterpretation" value="tryEndTimeThenDuration" />
		<!-- Possible values: reject,useMainModeIdentifier -->
		<param name="handlingOfPlansWithoutRoutingMode" value="reject" />
		<!-- The Coordinates Reference System in which the coordinates are expressed in the input file. At import, the coordinates will be converted to the coordinate system defined in "global", and willbe converted back at export. If not specified, no conversion happens. -->
		<param name="inputCRS" value="null" />
		<param name="inputPersonAttributesFile" value="null" />
		<param name="inputPlansFile" value="output/synthetic_population.xml" />
		<param name="insistingOnUsingDeprecatedPersonAttributeFile" value="false" />
		<!-- Defines how routes are stored in memory. Currently supported: LinkNetworkRoute, MediumCompressedNetworkRoute, HeavyCompressedNetworkRoute. -->
		<param name="networkRouteType" value="LinkNetworkRoute" />
		<!-- (not tested) will remove plan attributes that are presumably not used, such as activityStartTime. default=false. Use with Caution! -->
		<param name="removingUnnecessaryPlanAttributes" value="false" />
		<!-- Defines how departure times are interpreted in rerouting applications. If set to 'ignoreDelays', the departure time of a trip when routing along a plan will always be the nominal (plan-based) activity end time. If set to 'shiftActivityEndTimes', routing along a plan will accumulate travel times and shift activity end times if necessary -->
		<param name="tripDurationHandling" value="ignoreDelays" />
	</module>
	<module name="qsim" >
		<param name="endTime" value="24:00:00" />
		<!-- If set to withLinkAttributes snapshots will only be generated for links which include generateSnapshotForLink as attribute key. Default is no filtering. -->
		<param name="filterSnapshots" value="no" />
		<param name="flowCapacityFactor" value="0.8" />
		<!-- decides if waiting vehicles enter the network after or before the already driving vehicles were moved. Default: false -->
		<param name="insertingWaitingVehiclesBeforeDrivingVehicles" value="true" />
		<!-- If link dynamics is set as SeepageQ, set to false if all seep modes should perform seepage. Default is true (better option). -->
		<param name="isRestrictingSeepage" value="true" />
		<!-- If link dynamics is set as SeepageQ, set to true if seep mode do not consumes any space on the link. Default is false. -->
		<param name="isSeepModeStorageFree" value="false" />
		<!-- default: FIFO; options: FIFO PassingQ SeepageQ -->
		<param name="linkDynamics" value="FIFO" />
		<!-- The (initial) width of the links of the network. Use positive floating point values. This is used only for visualisation. -->
		<param name="linkWidth" value="30.0" />
		<!-- [comma-separated list] Defines which modes are congested modes. Technically, these are the modes that the departure handler of the netsimengine handles.  Effective cell size, effective lane width, flow capacity factor, and storage capacity factor need to be set with diligence.  Need to be vehicular modes to make sense. -->
		<param name="mainMode" value="car" />
		<!-- Shortens a link in the visualization, i.e. its start and end point are moved into towards the center. Does not affect traffic flow.  -->
		<param name="nodeOffset" value="0.0" />
		<!-- Number of threads used for the QSim.  Note that this setting is independent from the "global" threads setting.  In contrast to earlier versions, the non-parallel special version is no longer there. -->
		<param name="numberOfThreads" value="1" />
		<!-- Boolean. `true': stuck vehicles are removed, aborting the plan; `false': stuck vehicles are forced into the next link. `false' is probably the better choice. -->
		<param name="removeStuckVehicles" value="false" />
		<!-- If link dynamics is set as SeepageQ, set a seep mode. Default is bike. -->
		<param name="seepMode" value="bike" />
		<!-- Possible values: minOfEndtimeAndMobsimFinished,onlyUseEndtime -->
		<param name="simEndtimeInterpretation" value="null" />
		<!-- Options: maxOfStarttimeAndEarliestActivityEnd onlyUseStarttime  -->
		<param name="simStarttimeInterpretation" value="maxOfStarttimeAndEarliestActivityEnd" />
		<!-- snapshotStyle. One of: equiDist queue withHoles withHolesAndShowHoles kinematicWaves  -->
		<param name="snapshotStyle" value="queue" />
		<param name="snapshotperiod" value="00:30:00" />
		<param name="startTime" value="00:00:00" />
		<param name="storageCapacityFactor" value="1.0" />
		<!-- time in seconds.  Time after which the frontmost vehicle on a link is called `stuck' if it does not move. -->
		<param name="stuckTime" value="10.0" />
		<param name="timeStepSize" value="00:00:01" />
		<!-- options: queue withHoles kinematicWaves  -->
		<param name="trafficDynamics" value="queue" />
		<!-- Set this parameter to true if lanes should be used, false if not. -->
		<param name="useLanes" value="true" />
		<!-- If a route does not reference a vehicle, agents will use the vehicle with the same id as their own. -->
		<param name="usePersonIdForMissingVehicleId" value="false" />
		<!-- If false, the qsim accumulates fractional flows up to one flow unit in every time step.  If true, flows are updated only if an agent wants to enter the link or an agent is added to buffer. Default is true. -->
		<param name="usingFastCapacityUpdate" value="true" />
		<!-- Defines what happens if an agent wants to depart, but the specified vehicle is not available. One of: teleport wait exception  -->
		<param name="vehicleBehavior" value="teleport" />
		<!-- If vehicles should all be the same default vehicle, or come from the vehicles file, or something else.  Possible values:  defaultVehicle modeVehicleTypesFromVehiclesData fromVehiclesData -->
		<param name="vehiclesSource" value="defaultVehicle" />
	</module>
	<module name="replanning" >
		<!-- the external executable will be called with a config file as argument.  This is the pathname to a possible skeleton config, to which additional information will be added.  Can be null. -->
		<param name="ExternalExeConfigTemplate" value="null" />
		<!-- time out value (in seconds) after which matsim will consider the external strategy as failed -->
		<param name="ExternalExeTimeOut" value="3600" />
		<!-- root directory for temporary files generated by the external executable. Provided as a service; I don't think this is used by MATSim. -->
		<param name="ExternalExeTmpFileRootDir" value="null" />
		<!-- fraction of iterations where innovative strategies are switched off.  Something like 0.8 should be good.  E.g. if you run from iteration 400 to iteration 500, innovation is switched off at iteration 480 -->
		<param name="fractionOfIterationsToDisableInnovation" value="Infinity" />
		<!-- maximum number of plans per agent.  ``0'' means ``infinity''.  Currently (2010), ``5'' is a good number -->
		<param name="maxAgentPlanMemorySize" value="5" />
		<!-- strategyName of PlanSelector for plans removal.  Possible defaults: WorstPlanSelector SelectRandom SelectExpBetaForRemoval ChangeExpBetaForRemoval PathSizeLogitSelectorForRemoval . The current default, WorstPlanSelector is not a good choice from a discrete choice theoretical perspective. Alternatives, however, have not been systematically tested. kai, feb'12 -->
		<param name="planSelectorForRemoval" value="WorstPlanForRemovalSelectorWithConflicts" />
		<parameterset type="strategysettings" >
			<!-- iteration after which strategy will be disabled.  most useful for ``innovative'' strategies (new routes, new times, ...). Normally, better use fractionOfIterationsToDisableInnovation -->
			<param name="disableAfterIteration" value="-1" />
			<!-- path to external executable (if applicable) -->
			<param name="executionPath" value="null" />
			<!-- strategyName of strategy.  Possible default names: SelectRandom BestScore KeepLastSelected ChangeExpBeta SelectExpBeta SelectPathSizeLogit      (selectors), ReRouteTimeAllocationMutatorTimeAllocationMutator_ReRouteChangeSingleTripModeChangeTripModeSubtourModeChoice (innovative strategies). -->
			<param name="strategyName" value="BestScore" />
			<!-- subpopulation to which the strategy applies. "null" refers to the default population, that is, the set of persons for which no explicit subpopulation is defined (ie no subpopulation attribute) -->
			<param name="subpopulation" value="null" />
			<!-- weight of a strategy: for each agent, a strategy will be selected with a probability proportional to its weight -->
			<param name="weight" value="0.9" />
		</parameterset>
		<parameterset type="strategysettings" >
			<param name="disableAfterIteration" value="-1" />
			<param name="executionPath" value="null" />
			<param name="strategyName" value="ReRoute" />
			<param name="subpopulation" value="null" />
			<param name="weight" value="0.1" />
		</parameterset>
	</module>
	<module name="replanningAnnealer" >
		<!-- Activate the scaling of replanning modules using an annealing approach rather than fixed rates. -->
		<param name="activateAnnealingModule" value="false" />
	</module>
	<module name="routing" >
		<!-- Defines how access and egress to main mode is simulated. Either of [none, accessEgressModeToLink, walkConstantTimeToLink, accessEgressModeToLinkPlusTimeConstant], Current default=none which means no access or egress trips are simulated. -->
		<param name="accessEgressType" value="none" />
		<!-- Some typical teleportation routing params are set by default, such as for walk and bike.  Setting this switch to "true" will clear them.  Note that this will also clear settings for helper modes such as for non_network_walk -->
		<param name="clearDefaultTeleportedModeParams" value="false" />
		<!-- All the modes for which the router is supposed to generate network routes (like car) -->
		<param name="networkModes" value="car" />
		<!-- strength of the randomness for the utility of money in routing under toll.  Leads to Pareto-optimal route with randomly drawn money-vs-other-attributes tradeoff. Technically the width parameter of a log-normal distribution. 3.0 seems to be a good value.  -->
		<param name="routingRandomness" value="3.0" />
		<parameterset type="teleportedModeParameters" >
			<param name="beelineDistanceFactor" value="1.3" />
			<param name="mode" value="bike" />
			<!-- Free-speed factor for a teleported mode. Travel time = teleportedModeFreespeedFactor * <freespeed car travel time>. Insert a line like this for every such mode. Please do not set teleportedModeFreespeedFactor as well as teleportedModeSpeed for the same mode, but if you do, +teleportedModeFreespeedFactor wins over teleportedModeSpeed. -->
			<param name="teleportedModeFreespeedFactor" value="null" />
			<!-- Speed for a teleported mode. Travel time = (<beeline distance> * beelineDistanceFactor) / teleportedModeSpeed. Insert a line like this for every such mode. -->
			<param name="teleportedModeSpeed" value="4.166666666666667" />
		</parameterset>
		<parameterset type="teleportedModeParameters" >
			<param name="beelineDistanceFactor" value="1.3" />
			<param name="mode" value="walk" />
			<param name="teleportedModeFreespeedFactor" value="null" />
			<param name="teleportedModeSpeed" value="0.8333333333333333" />
		</parameterset>
		<parameterset type="teleportedModeParameters" >
			<param name="beelineDistanceFactor" value="1.3" />
			<param name="mode" value="non_network_walk" />
			<param name="teleportedModeFreespeedFactor" value="null" />
			<param name="teleportedModeSpeed" value="0.8333333333333333" />
		</parameterset>
		<parameterset type="teleportedModeParameters" >
			<param name="beelineDistanceFactor" value="1.3" />
			<param name="mode" value="ride" />
			<param name="teleportedModeFreespeedFactor" value="1.0" />
			<param name="teleportedModeSpeed" value="null" />
		</parameterset>
		<parameterset type="teleportedModeParameters" >
			<param name="beelineDistanceFactor" value="1.3" />
			<param name="mode" value="pt" />
			<param name="teleportedModeFreespeedFactor" value="2.0" />
			<param name="teleportedModeSpeed" value="null" />
		</parameterset>
	</module>
	<module name="scoring" >
		<!-- logit model scale parameter. default: 1.  Has name and default value for historical reasons (see Bryan Raney's phd thesis). -->
		<param name="brainExpBeta" value="2.0" />
		<!-- fraction of iterations at which MSA score averaging is started. The matsim theory department suggests to use this together with switching off choice set innovation (where a similar switch exists), but it has not been tested yet. -->
		<param name="fractionOfIterationsToStartScoreMSA" value="null" />
		<!-- new_score = (1-learningRate)*old_score + learningRate * score_from_mobsim.  learning rates close to zero emulate score averaging, but slow down initial convergence -->
		<param name="learningRate" value="1.0" />
		<param name="pathSizeLogitBeta" value="1.0" />
		<!-- There used to be a plateau between duration=0 and duration=zeroUtilityDuration. This caused durations to evolve to zero once they were below zeroUtilityDuration, causing problems.  Only use this switch if you need to be backwards compatible with some old results.  (changed nov'13) -->
		<param name="usingOldScoringBelowZeroUtilityDuration" value="false" />
		<!-- write a plans file in each iteration directory which contains what each agent actually did, and the score it received. -->
		<param name="writeExperiencedPlans" value="false" />
		<parameterset type="scoringParameters" >
			<param name="earlyDeparture" value="-0.0" />
			<param name="lateArrival" value="-18.0" />
			<param name="marginalUtilityOfMoney" value="0.01" />
			<param name="performing" value="6.0" />
			<param name="subpopulation" value="null" />
			<param name="utilityOfLineSwitch" value="-1.0" />
			<param name="waiting" value="-0.0" />
			<param name="waitingPt" value="-4.0" />
			<parameterset type="activityParams" >
				<param name="activityType" value="dummy" />
				<param name="closingTime" value="undefined" />
				<param name="earliestEndTime" value="undefined" />
				<param name="latestStartTime" value="undefined" />
				<param name="minimalDuration" value="undefined" />
				<param name="openingTime" value="undefined" />
				<param name="priority" value="1.0" />
				<param name="scoringThisActivityAtAll" value="true" />
				<!-- typical duration of activity.  needs to be defined and non-zero.  in sec. -->
				<param name="typicalDuration" value="02:00:00" />
				<!-- method to compute score at typical duration.  Options: | uniform | relative | Use uniform for backwards compatibility (all activities same score; higher proba to drop long acts). -->
				<param name="typicalDurationScoreComputation" value="relative" />
			</parameterset>
			<parameterset type="activityParams" >
				<param name="activityType" value="car interaction" />
				<param name="closingTime" value="undefined" />
				<param name="earliestEndTime" value="undefined" />
				<param name="latestStartTime" value="undefined" />
				<param name="minimalDuration" value="undefined" />
				<param name="openingTime" value="undefined" />
				<param name="priority" value="1.0" />
				<param name="scoringThisActivityAtAll" value="false" />
				<param name="typicalDuration" value="undefined" />
				<param name="typicalDurationScoreComputation" value="relative" />
			</parameterset>
			<parameterset type="activityParams" >
				<param name="activityType" value="pt interaction" />
				<param name="closingTime" value="undefined" />
				<param name="earliestEndTime" value="undefined" />
				<param name="latestStartTime" value="undefined" />
				<param name="minimalDuration" value="undefined" />
				<param name="openingTime" value="undefined" />
				<param name="priority" value="1.0" />
				<param name="scoringThisActivityAtAll" value="false" />
				<param name="typicalDuration" value="undefined" />
				<param name="typicalDurationScoreComputation" value="relative" />
			</parameterset>
			<parameterset type="activityParams" >
				<param name="activityType" value="bike interaction" />
				<param name="closingTime" value="undefined" />
				<param name="earliestEndTime" value="undefined" />
				<param name="latestStartTime" value="undefined" />
				<param name="minimalDuration" value="undefined" />
				<param name="openingTime" value="undefined" />
				<param name="priority" value="1.0" />
				<param name="scoringThisActivityAtAll" value="false" />
				<param name="typicalDuration" value="undefined" />
				<param name="typicalDurationScoreComputation" value="relative" />
			</parameterset>
			<parameterset type="activityParams" >
				<param name="activityType" value="drt interaction" />
				<param name="closingTime" value="undefined" />
				<param name="earliestEndTime" value="undefined" />
				<param name="latestStartTime" value="undefined" />
				<param name="minimalDuration" value="undefined" />
				<param name="openingTime" value="undefined" />
				<param name="priority" value="1.0" />
				<param name="scoringThisActivityAtAll" value="false" />
				<param name="typicalDuration" value="undefined" />
				<param name="typicalDurationScoreComputation" value="relative" />
			</parameterset>
			<parameterset type="activityParams" >
				<param name="activityType" value="taxi interaction" />
				<param name="closingTime" value="undefined" />
				<param name="earliestEndTime" value="undefined" />
				<param name="latestStartTime" value="undefined" />
				<param name="minimalDuration" value="undefined" />
				<param name="openingTime" value="undefined" />
				<param name="priority" value="1.0" />
				<param name="scoringThisActivityAtAll" value="false" />
				<param name="typicalDuration" value="undefined" />
				<param name="typicalDurationScoreComputation" value="relative" />
			</parameterset>
			<parameterset type="activityParams" >
				<param name="activityType" value="other interaction" />
				<param name="closingTime" value="undefined" />
				<param name="earliestEndTime" value="undefined" />
				<param name="latestStartTime" value="undefined" />
				<param name="minimalDuration" value="undefined" />
				<param name="openingTime" value="undefined" />
				<param name="priority" value="1.0" />
				<param name="scoringThisActivityAtAll" value="false" />
				<param name="typicalDuration" value="undefined" />
				<param name="typicalDurationScoreComputation" value="relative" />
			</parameterset>
			<parameterset type="activityParams" >
				<param name="activityType" value="walk interaction" />
				<param name="closingTime" value="undefined" />
				<param name="earliestEndTime" value="undefined" />
				<param name="latestStartTime" value="undefined" />
				<param name="minimalDuration" value="undefined" />
				<param name="openingTime" value="undefined" />
				<param name="priority" value="1.0" />
				<param name="scoringThisActivityAtAll" value="false" />
				<param name="typicalDuration" value="undefined" />
				<param name="typicalDurationScoreComputation" value="relative" />
			</parameterset>
			<parameterset type="activityParams" >
				<param name="activityType" value="home" />
				<param name="closingTime" value="undefined" />
				<param name="earliestEndTime" value="undefined" />
				<param name="latestStartTime" value="undefined" />
				<param name="minimalDuration" value="undefined" />
				<param name="openingTime" value="undefined" />
				<param name="priority" value="1.0" />
				<param name="scoringThisActivityAtAll" value="true" />
				<param name="typicalDuration" value="12:00:00" />
				<param name="typicalDurationScoreComputation" value="relative" />
			</parameterset>
			<parameterset type="activityParams" >
				<param name="activityType" value="work" />
				<param name="closingTime" value="18:00:00" />
				<param name="earliestEndTime" value="undefined" />
				<param name="latestStartTime" value="09:00:00" />
				<param name="minimalDuration" value="undefined" />
				<param name="openingTime" value="07:00:00" />
				<param name="priority" value="1.0" />
				<param name="scoringThisActivityAtAll" value="true" />
				<param name="typicalDuration" value="08:00:00" />
				<param name="typicalDurationScoreComputation" value="relative" />
			</parameterset>
			<parameterset type="activityParams" >
				<param name="activityType" value="ride interaction" />
				<param name="closingTime" value="undefined" />
				<param name="earliestEndTime" value="undefined" />
				<param name="latestStartTime" value="undefined" />
				<param name="minimalDuration" value="undefined" />
				<param name="openingTime" value="undefined" />
				<param name="priority" value="1.0" />
				<param name="scoringThisActivityAtAll" value="false" />
				<param name="typicalDuration" value="undefined" />
				<param name="typicalDurationScoreComputation" value="relative" />
			</parameterset>
			<parameterset type="modeParams" >
				<!-- [utils] alternative-specific constant.  Normally per trip, but that is probably buggy for multi-leg trips. -->
				<param name="constant" value="0.0" />
				<!-- [unit_of_money/day] Fixed cost of mode, per day. -->
				<param name="dailyMonetaryConstant" value="1.0" />
				<!-- [utils] daily utility constant. default=0 to be backwards compatible -->
				<param name="dailyUtilityConstant" value="0.0" />
				<!-- [utils/m] utility of traveling (e.g. walking or driving) per m, normally negative.  this is on top of the time (dis)utility. -->
				<param name="marginalUtilityOfDistance_util_m" value="-0.02" />
				<!-- [utils/hr] additional marginal utility of traveling.  normally negative.  this comes on top of the opportunity cost of time -->
				<param name="marginalUtilityOfTraveling_util_hr" value="-6.0" />
				<param name="mode" value="car" />
				<!-- [unit_of_money/m] conversion of distance into money. Normally negative. -->
				<param name="monetaryDistanceRate" value="-1.0E-4" />
			</parameterset>
			<parameterset type="modeParams" >
				<param name="constant" value="0.0" />
				<param name="dailyMonetaryConstant" value="0.0" />
				<param name="dailyUtilityConstant" value="0.0" />
				<param name="marginalUtilityOfDistance_util_m" value="-0.05" />
				<param name="marginalUtilityOfTraveling_util_hr" value="-6.0" />
				<param name="mode" value="walk" />
				<param name="monetaryDistanceRate" value="-0.005" />
			</parameterset>
			<parameterset type="modeParams" >
				<param name="constant" value="0.0" />
				<param name="dailyMonetaryConstant" value="0.0" />
				<param name="dailyUtilityConstant" value="0.0" />
				<param name="marginalUtilityOfDistance_util_m" value="-0.025" />
				<param name="marginalUtilityOfTraveling_util_hr" value="-3.0" />
				<param name="mode" value="bike" />
				<param name="monetaryDistanceRate" value="0.0015" />
			</parameterset>
			<parameterset type="modeParams" >
				<param name="constant" value="0.0" />
				<param name="dailyMonetaryConstant" value="2.0" />
				<param name="dailyUtilityConstant" value="0.0" />
				<param name="marginalUtilityOfDistance_util_m" value="-0.0025" />
				<param name="marginalUtilityOfTraveling_util_hr" value="-6.0" />
				<param name="mode" value="ride" />
				<param name="monetaryDistanceRate" value="-1.0E-4" />
			</parameterset>
			<parameterset type="modeParams" >
				<param name="constant" value="0.0" />
				<param name="dailyMonetaryConstant" value="0.0" />
				<param name="dailyUtilityConstant" value="0.0" />
				<param name="marginalUtilityOfDistance_util_m" value="-0.0025" />
				<param name="marginalUtilityOfTraveling_util_hr" value="-4.0" />
				<param name="mode" value="pt" />
				<param name="monetaryDistanceRate" value="-1.0E-4" />
			</parameterset>
			<parameterset type="modeParams" >
				<param name="constant" value="0.0" />
				<param name="dailyMonetaryConstant" value="1.0" />
				<param name="dailyUtilityConstant" value="0.0" />
				<param name="marginalUtilityOfDistance_util_m" value="-0.02" />
				<param name="marginalUtilityOfTraveling_util_hr" value="-2.0" />
				<param name="mode" value="other" />
				<param name="monetaryDistanceRate" value="-1.0E-4" />
			</parameterset>
		</parameterset>
	</module>
	<module name="subtourModeChoice" >
		<!-- Only for backwards compatibility.  Defines if only trips from modes list should change mode, or all trips.  Options: fromAllModesToSpecifiedModes fromSpecifiedModesToSpecifiedModes betweenAllAndFewerConstraints  -->
		<param name="behavior" value="fromSpecifiedModesToSpecifiedModes" />
		<!-- Defines the chain-based modes, seperated by commas -->
		<param name="chainBasedModes" value="car,bike" />
		<!-- Defines whether car availability must be considered or not. A agent has no car only if it has no license, or never access to a car -->
		<param name="considerCarAvailability" value="false" />
		<!-- If greater than 0, subtours will also consider coordinates to be at the same location when smaller than set distance. -->
		<param name="coordDistance" value="0.0" />
		<!-- Defines all the modes available, including chain-based modes, seperated by commas -->
		<param name="modes" value="car,pt,bike,walk" />
		<!-- Defines the probability of changing a single trip for a unchained mode instead of subtour. -->
		<param name="probaForRandomSingleTripMode" value="0.0" />
	</module>
	<module name="timeAllocationMutator" >
		<!-- Latest Activity End Time. Default = 24:00:00 -->
		<param name="latestActivityEndTime" value="86400.0" />
		<!-- Mutates times only around the initially defined end times. -->
		<param name="mutateAroundInitialEndTimeOnly" value="false" />
		<!-- Default:true; Defines whether time mutation changes an activity's duration. -->
		<param name="mutationAffectsDuration" value="true" />
		<!-- Default:1800.0; Defines how many seconds a time mutation can maximally shift a time. -->
		<param name="mutationRange" value="1800.0" />
		<!-- Mutation Range Step, default = 1 second -->
		<param name="mutationRangeStep" value="1.0" />
	</module>
	<module name="transit" >
		<!-- The Coordinates Reference System in which the coordinates are expressed in the input file. At import, the coordinates will be converted to the coordinate system defined in "global", and willbe converted back at export. If not specified, no conversion happens. -->
		<param name="inputScheduleCRS" value="null" />
		<param name="insistingOnUsingDeprecatedAttributeFiles" value="false" />
		<!-- The type of transit routing algorithm used, may have the values: [DijkstraBased, SwissRailRaptor] -->
		<param name="routingAlgorithmType" value="SwissRailRaptor" />
		<!-- Optional input file containing additional attributes for transit lines, stored as ObjectAttributes. -->
		<param name="transitLinesAttributesFile" value="null" />
		<!-- Comma-separated list of transportation modes that are handled as transit. Defaults to 'pt'. -->
		<param name="transitModes" value="pt" />
		<!-- Input file containing the transit schedule to be simulated. -->
		<param name="transitScheduleFile" value="null" />
		<!-- Optional input file containing additional attributes for transit stop facilities, stored as ObjectAttributes. -->
		<param name="transitStopsAttributesFile" value="null" />
		<!-- Set this parameter to true if transit should be simulated, false if not. -->
		<param name="useTransit" value="false" />
		<param name="usingTransitInMobsim" value="true" />
		<!-- Input file containing the vehicles used by the departures in the transit schedule. -->
		<param name="vehiclesFile" value="null" />
	</module>
	<module name="transitRouter" >
		<!-- additional time the router allocates when a line switch happens. Can be interpreted as a 'safety' time that agents need to safely transfer from one line to another -->
		<param name="additionalTransferTime" value="0.0" />
		<!-- Factor with which direct walk generalized cost is multiplied before it is compared to the pt generalized cost.  Set to a very high value to reduce direct walk results. -->
		<param name="directWalkFactor" value="1.0" />
		<!-- step size to increase searchRadius if no stops are found -->
		<param name="extensionRadius" value="200.0" />
		<!-- maximum beeline distance between stops that agents could transfer to by walking -->
		<param name="maxBeelineWalkConnectionDistance" value="100.0" />
		<!-- the radius in which stop locations are searched, given a start or target coordinate -->
		<param name="searchRadius" value="1000.0" />
	</module>
	<module name="travelTimeCalculator" >
		<!-- (only for backwards compatibility; only used if separateModes==false && + filterModes==true)  Transport modes that will be respected by the travel time collector. 'car' is default which includes also buses from the pt simulation module. -->
		<param name="analyzedModes" value="car" />
		<param name="calculateLinkToLinkTravelTimes" value="false" />
		<param name="calculateLinkTravelTimes" value="true" />
		<!-- (only for backwards compatiblity; only used if separateModes==false)  Only modes included in analyzedModes are included. -->
		<param name="filterModes" value="false" />
		<!-- The lenght (in sec) of the time period that is splited into time bins; an additional time bin is created to aggregate all travel times collected after maxTime -->
		<param name="maxTime" value="108000" />
		<!-- (only for backwards compatibility) If false, link travel times are measured and aggregated over all vehicles using the link. -->
		<param name="separateModes" value="true" />
		<!-- How to deal with congested time bins that have no link entry events. `optimistic' assumes free speed (too optimistic); 'experimental_LastMile' is experimental and probably too pessimistic. -->
		<param name="travelTimeAggregator" value="optimistic" />
		<!-- The size of the time bin (in sec) into which the link travel times are aggregated for the router -->
		<param name="travelTimeBinSize" value="900.0" />
		<!-- How to deal with link entry times at different positions during the time bin. Currently supported: average, linearinterpolation -->
		<param name="travelTimeGetter" value="average" />
	</module>
	<module name="vehicles" >
		<param name="vehiclesFile" value="null" />
	</module>
	<module name="vspExperimental" >
		<!-- (do not use except of you have to) There was a problem with pt interaction scoring.  Some people solved it by overwriting the parameters of the pt interaction activity type.  Doing this now throws an Exception.  If you still insist on doing this, set the following to true. -->
		<param name="isAbleToOverwritePtInteractionParams" value="false" />
		<param name="isGeneratingBoardingDeniedEvent" value="false" />
		<!-- if an approximation of the opportunity cost of time is included into the radius calculation for location choice.`true' will be faster, but it is an approximation.  Default is `true'; `false' is available for backwards compatibility. -->
		<param name="isUsingOpportunityCostOfTimeForLocationChoice" value="true" />
		<param name="logitScaleParamForPlansRemoval" value="1.0" />
		<!-- Options: | ignore | info | warn | abort | .  When violating VSP defaults, this results in nothing, logfile infos, logfile warnings, or aborts.  Members of VSP should use `abort' or talk to kai. -->
		<param name="vspDefaultsCheckingLevel" value="ignore" />
		<!-- if true then writes output_events in output directory.  default is `false'. Will only work when lastIteration is multiple of events writing interval -->
		<param name="writingOutputEvents" value="true" />
	</module>

</config>

2024-12-18T05:11:09,708  INFO ControlerUtils:84 Complete config dump done.
2024-12-18T05:11:09,708  INFO ControlerUtils:85 Checking consistency of config...
2024-12-18T05:11:09,708  INFO VspConfigConsistencyCheckerImpl:68 NOT running vsp config consistency check because vsp defaults checking level is set to IGNORE
2024-12-18T05:11:09,714  WARN ConfigConsistencyCheckerImpl:167 Using lanes without enabling linktolinkrouting might not lead to expected simulation results
2024-12-18T05:11:09,714  INFO ControlerUtils:87 Checking consistency of config done.
2024-12-18T05:11:09,715  INFO PrepareForSimImpl:128 Network seems to be multimodal. Create car-only network which is handed over to PersonPrepareForSim.
2024-12-18T05:11:09,716  INFO NetworkImpl:165  node # 1
2024-12-18T05:11:09,716  INFO NetworkImpl:165  node # 4
2024-12-18T05:11:09,717  INFO NetworkImpl:165  node # 16
2024-12-18T05:11:09,717  INFO NetworkImpl:165  node # 64
2024-12-18T05:11:09,717  INFO NetworkImpl:165  node # 256
2024-12-18T05:11:09,719  INFO NetworkImpl:165  node # 1024
2024-12-18T05:11:09,723  INFO NetworkImpl:161  link # 1
2024-12-18T05:11:09,723  INFO NetworkImpl:161  link # 4
2024-12-18T05:11:09,724  INFO NetworkImpl:161  link # 16
2024-12-18T05:11:09,724  INFO NetworkImpl:161  link # 64
2024-12-18T05:11:09,727  INFO NetworkImpl:161  link # 256
2024-12-18T05:11:09,731  INFO NetworkImpl:161  link # 1024
2024-12-18T05:11:09,743  INFO NetworkImpl:161  link # 4096
2024-12-18T05:11:09,750  INFO Counter:70 [VehiclesImpl] added vehicle # 1
2024-12-18T05:11:09,751  INFO Counter:70 [VehiclesImpl] added vehicle # 2
2024-12-18T05:11:09,751  INFO Counter:70 [VehiclesImpl] added vehicle # 4
2024-12-18T05:11:09,751  INFO Counter:70 [VehiclesImpl] added vehicle # 8
2024-12-18T05:11:09,751  INFO Counter:70 [VehiclesImpl] added vehicle # 16
2024-12-18T05:11:09,751  INFO Counter:70 [VehiclesImpl] added vehicle # 32
2024-12-18T05:11:09,752  INFO Counter:70 [VehiclesImpl] added vehicle # 64
2024-12-18T05:11:09,752  INFO Counter:70 [VehiclesImpl] added vehicle # 128
2024-12-18T05:11:09,753  INFO Counter:70 [VehiclesImpl] added vehicle # 256
2024-12-18T05:11:09,755  INFO Counter:70 [VehiclesImpl] added vehicle # 512
2024-12-18T05:11:09,758  INFO Counter:70 [VehiclesImpl] added vehicle # 1024
2024-12-18T05:11:09,762  INFO Counter:70 [VehiclesImpl] added vehicle # 2048
2024-12-18T05:11:09,766  INFO Counter:70 [VehiclesImpl] added vehicle # 4096
2024-12-18T05:11:09,775  INFO Counter:70 [VehiclesImpl] added vehicle # 8192
2024-12-18T05:11:09,789  INFO Counter:70 [VehiclesImpl] added vehicle # 16384
2024-12-18T05:11:09,816  INFO Counter:70 [VehiclesImpl] added vehicle # 32768
2024-12-18T05:11:09,845  INFO Counter:70 [VehiclesImpl] added vehicle # 65536
2024-12-18T05:11:09,902  INFO Counter:70 [VehiclesImpl] added vehicle # 131072
2024-12-18T05:11:10,022  INFO Counter:70 [VehiclesImpl] added vehicle # 262144
2024-12-18T05:11:10,257  INFO Counter:70 [VehiclesImpl] added vehicle # 524288
2024-12-18T05:11:10,906  INFO SpeedyALTData:51 find dead ends...
2024-12-18T05:11:10,909  INFO SpeedyALTData:132 calculate landmarks...
2024-12-18T05:11:10,947  INFO SpeedyALTData:173 calculate min travelcost...
2024-12-18T05:11:10,949  INFO NetworkImpl:165  node # 1
2024-12-18T05:11:10,949  INFO NetworkImpl:165  node # 4
2024-12-18T05:11:10,950  INFO NetworkImpl:165  node # 16
2024-12-18T05:11:10,950  INFO NetworkImpl:165  node # 64
2024-12-18T05:11:10,950  INFO NetworkImpl:165  node # 256
2024-12-18T05:11:10,950  INFO NetworkImpl:165  node # 1024
2024-12-18T05:11:10,952  INFO NetworkImpl:161  link # 1
2024-12-18T05:11:10,952  INFO NetworkImpl:161  link # 4
2024-12-18T05:11:10,952  INFO NetworkImpl:161  link # 16
2024-12-18T05:11:10,952  INFO NetworkImpl:161  link # 64
2024-12-18T05:11:10,953  INFO NetworkImpl:161  link # 256
2024-12-18T05:11:10,956  INFO NetworkImpl:161  link # 1024
2024-12-18T05:11:10,965  INFO NetworkImpl:161  link # 4096
2024-12-18T05:11:10,968  WARN RandomizingTimeDistanceTravelDisutilityFactory:118 There will be no routing randomness. The randomization of the travel disutility requires the travel time cost rate to be different than zero. Continuing anyway.
2024-12-18T05:11:10,970  INFO RandomizingTimeDistanceTravelDisutilityFactory:86  sigma: 3.0; resulting normalization: 0.011108996538242306
2024-12-18T05:11:10,973  INFO SpeedyALTData:51 find dead ends...
2024-12-18T05:11:10,975  INFO SpeedyALTData:132 calculate landmarks...
2024-12-18T05:11:11,002  INFO SpeedyALTData:173 calculate min travelcost...
2024-12-18T05:11:11,006  INFO SpeedyALTData:51 find dead ends...
2024-12-18T05:11:11,007  INFO SpeedyALTData:132 calculate landmarks...
2024-12-18T05:11:11,031  INFO SpeedyALTData:173 calculate min travelcost...
2024-12-18T05:11:11,035  INFO RandomizingTimeDistanceTravelDisutilityFactory:86  sigma: 3.0; resulting normalization: 0.011108996538242306
2024-12-18T05:11:11,091  INFO NetworkImpl:419 building QuadTree for nodes: xrange(540450.5299032889,559463.3551089474); yrange(4154922.951197087,4193344.909352815)
2024-12-18T05:11:11,106  INFO NetworkImpl:428 Building QuadTree took 0.017 seconds.
2024-12-18T05:11:11,107  INFO Counter:70 [PersonPrepareForSim] handled person # 2
2024-12-18T05:11:11,107  INFO Counter:70 [PersonPrepareForSim] handled person # 4
2024-12-18T05:11:11,107  INFO Counter:70 [PersonPrepareForSim] handled person # 1
2024-12-18T05:11:11,107  INFO Counter:70 [PersonPrepareForSim] handled person # 8
2024-12-18T05:11:11,107  INFO Counter:70 [PersonPrepareForSim] handled person # 16
2024-12-18T05:11:11,108  INFO Counter:70 [PersonPrepareForSim] handled person # 32
2024-12-18T05:11:11,110  INFO Counter:70 [PersonPrepareForSim] handled person # 64
2024-12-18T05:11:11,111  INFO Counter:70 [PersonPrepareForSim] handled person # 128
2024-12-18T05:11:11,114  INFO Counter:70 [PersonPrepareForSim] handled person # 256
2024-12-18T05:11:11,118  INFO Counter:70 [PersonPrepareForSim] handled person # 512
2024-12-18T05:11:11,124  INFO Counter:70 [PersonPrepareForSim] handled person # 1024
2024-12-18T05:11:11,129  INFO Counter:70 [PersonPrepareForSim] handled person # 2048
2024-12-18T05:11:11,136  INFO Counter:70 [PersonPrepareForSim] handled person # 4096
2024-12-18T05:11:11,148  INFO Counter:70 [PersonPrepareForSim] handled person # 8192
2024-12-18T05:11:11,172  INFO Counter:70 [PersonPrepareForSim] handled person # 16384
2024-12-18T05:11:11,218  INFO Counter:70 [PersonPrepareForSim] handled person # 32768
2024-12-18T05:11:11,375  INFO Counter:70 [PersonPrepareForSim] handled person # 65536
2024-12-18T05:11:11,525  INFO Counter:70 [PersonPrepareForSim] handled person # 131072
2024-12-18T05:11:11,690  INFO Counter:70 [PersonPrepareForSim] handled person # 262144
2024-12-18T05:11:11,883  INFO Counter:70 [PersonPrepareForSim] handled person # 524288
2024-12-18T05:11:12,147  INFO Counter:75 [PersonPrepareForSim] handled person # 873965
2024-12-18T05:11:12,191  INFO AbstractController:136 ###################################################
2024-12-18T05:11:12,192  INFO AbstractController:137 ### ITERATION 0 BEGINS
2024-12-18T05:11:12,193  INFO ControlerListenerManagerImpl:156 calling notifyIterationStarts on org.matsim.analysis.LegHistogramListener with priority 0.0
2024-12-18T05:11:12,193  INFO ControlerListenerManagerImpl:156 calling notifyIterationStarts on org.matsim.analysis.LinkStatsControlerListener with priority 0.0
2024-12-18T05:11:12,193  INFO ControlerListenerManagerImpl:156 calling notifyIterationStarts on org.matsim.core.replanning.ReplanningContextImpl with priority 0.0
2024-12-18T05:11:12,193  INFO ControlerListenerManagerImpl:156 calling notifyIterationStarts on org.matsim.core.scoring.ScoringFunctionsForPopulation$$Lambda$233/0x00007f599c350d40 with priority 0.0
2024-12-18T05:11:13,051  INFO ControlerListenerManagerImpl:156 calling notifyIterationStarts on org.matsim.core.scoring.ExperiencedPlansServiceImpl$1 with priority 0.0
2024-12-18T05:11:13,103  INFO ControlerListenerManagerImpl:159 [it.0] all ControlerIterationStartsListeners called.
2024-12-18T05:11:13,104  INFO ControlerListenerManagerImpl:242 calling notifyBeforeMobsim on org.matsim.core.controler.corelisteners.EventsHandlingImpl with priority 0.0
2024-12-18T05:11:13,104  INFO EventsManagerImpl:168 resetting Event-Handlers
2024-12-18T05:11:13,104  INFO EventsManagerImpl:175   org.matsim.core.trafficmonitoring.TravelTimeCalculator
2024-12-18T05:11:13,105  INFO EventsManagerImpl:175   org.matsim.analysis.VolumesAnalyzer
2024-12-18T05:11:13,105  INFO EventsManagerImpl:175   org.matsim.core.scoring.ScoringFunctionsForPopulation
2024-12-18T05:11:13,108  INFO EventsManagerImpl:175   org.matsim.analysis.LegHistogram
2024-12-18T05:11:13,108  INFO EventsManagerImpl:175   org.matsim.analysis.CalcLegTimes
2024-12-18T05:11:13,111  INFO EventsManagerImpl:138 adding Event-Handler: org.matsim.core.events.algorithms.EventWriterXML
2024-12-18T05:11:13,111  INFO EventsManagerImpl:144   org.matsim.core.events.algorithms.EventWriter
2024-12-18T05:11:13,112  INFO EventsManagerImpl:144   org.matsim.core.events.handler.BasicEventHandler
2024-12-18T05:11:13,112  INFO EventsManagerImpl:205     > org.matsim.api.core.v01.events.Event
2024-12-18T05:11:13,112  INFO EventsManagerImpl:154 
2024-12-18T05:11:13,112  INFO EventsManagerImpl:138 adding Event-Handler: org.matsim.core.events.algorithms.EventWriterXML
2024-12-18T05:11:13,112  INFO EventsManagerImpl:144   org.matsim.core.events.algorithms.EventWriter
2024-12-18T05:11:13,112  INFO EventsManagerImpl:144   org.matsim.core.events.handler.BasicEventHandler
2024-12-18T05:11:13,112  INFO EventsManagerImpl:205     > org.matsim.api.core.v01.events.Event
2024-12-18T05:11:13,112  INFO EventsManagerImpl:154 
2024-12-18T05:11:13,112  INFO ControlerListenerManagerImpl:242 calling notifyBeforeMobsim on org.matsim.core.controler.corelisteners.PlansDumpingImpl with priority 0.0
2024-12-18T05:11:13,112  INFO PlansDumpingImpl:77 dumping plans...
2024-12-18T05:11:13,457  INFO Counter:70 [PopulationWriter] dumped person # 1
2024-12-18T05:11:13,457  INFO Counter:70 [PopulationWriter] dumped person # 2
2024-12-18T05:11:13,457  INFO Counter:70 [PopulationWriter] dumped person # 4
2024-12-18T05:11:13,457  INFO Counter:70 [PopulationWriter] dumped person # 8
2024-12-18T05:11:13,458  INFO Counter:70 [PopulationWriter] dumped person # 16
2024-12-18T05:11:13,458  INFO Counter:70 [PopulationWriter] dumped person # 32
2024-12-18T05:11:13,458  INFO Counter:70 [PopulationWriter] dumped person # 64
2024-12-18T05:11:13,458  INFO Counter:70 [PopulationWriter] dumped person # 128
2024-12-18T05:11:13,458  INFO Counter:70 [PopulationWriter] dumped person # 256
2024-12-18T05:11:13,459  INFO Counter:70 [PopulationWriter] dumped person # 512
2024-12-18T05:11:13,467  INFO Counter:70 [ParallelPopulationWriterV6] dumped person # 1
2024-12-18T05:11:13,467  INFO Counter:70 [ParallelPopulationWriterV6] dumped person # 2
2024-12-18T05:11:13,468  INFO Counter:70 [ParallelPopulationWriterV6] dumped person # 4
2024-12-18T05:11:13,468  INFO Counter:70 [ParallelPopulationWriterV6] dumped person # 8
2024-12-18T05:11:13,468  INFO Counter:70 [ParallelPopulationWriterV6] dumped person # 16
2024-12-18T05:11:13,469  INFO Counter:70 [PopulationWriter] dumped person # 1024
2024-12-18T05:11:13,470  INFO Counter:70 [ParallelPopulationWriterV6] dumped person # 32
2024-12-18T05:11:13,472  INFO Counter:70 [ParallelPopulationWriterV6] dumped person # 64
2024-12-18T05:11:13,476  INFO Counter:70 [ParallelPopulationWriterV6] dumped person # 128
2024-12-18T05:11:13,482  INFO Counter:70 [ParallelPopulationWriterV6] dumped person # 256
2024-12-18T05:11:13,493  INFO Counter:70 [ParallelPopulationWriterV6] dumped person # 512
2024-12-18T05:11:13,507  INFO Counter:70 [ParallelPopulationWriterV6] dumped person # 1024
2024-12-18T05:11:13,508  INFO Counter:70 [PopulationWriter] dumped person # 2048
2024-12-18T05:11:13,523  INFO Counter:70 [ParallelPopulationWriterV6] dumped person # 2048
2024-12-18T05:11:13,535  INFO Counter:70 [PopulationWriter] dumped person # 4096
2024-12-18T05:11:13,545  INFO Counter:70 [ParallelPopulationWriterV6] dumped person # 4096
2024-12-18T05:11:13,573  INFO Counter:70 [PopulationWriter] dumped person # 8192
2024-12-18T05:11:13,582  INFO Counter:70 [ParallelPopulationWriterV6] dumped person # 8192
2024-12-18T05:11:13,653  INFO Counter:70 [PopulationWriter] dumped person # 16384
2024-12-18T05:11:13,662  INFO Counter:70 [ParallelPopulationWriterV6] dumped person # 16384
2024-12-18T05:11:13,810  INFO Counter:70 [PopulationWriter] dumped person # 32768
2024-12-18T05:11:13,819  INFO Counter:70 [ParallelPopulationWriterV6] dumped person # 32768
2024-12-18T05:11:14,110  INFO Counter:70 [PopulationWriter] dumped person # 65536
2024-12-18T05:11:14,118  INFO Counter:70 [ParallelPopulationWriterV6] dumped person # 65536
2024-12-18T05:11:14,592  INFO Counter:70 [PopulationWriter] dumped person # 131072
2024-12-18T05:11:14,599  INFO Counter:70 [ParallelPopulationWriterV6] dumped person # 131072
2024-12-18T05:11:15,470  INFO Counter:70 [PopulationWriter] dumped person # 262144
2024-12-18T05:11:15,477  INFO Counter:70 [ParallelPopulationWriterV6] dumped person # 262144
2024-12-18T05:11:17,229  INFO Counter:70 [PopulationWriter] dumped person # 524288
2024-12-18T05:11:17,235  INFO Counter:70 [ParallelPopulationWriterV6] dumped person # 524288
2024-12-18T05:11:19,614  INFO Counter:75 [ParallelPopulationWriterV6] dumped person # 873965
2024-12-18T05:11:19,615  INFO PopulationWriter:150 Population written to: scenarios/equil/output/run_20241218_051102/ITERS/it.0/0.plans.xml.gz
2024-12-18T05:11:19,615  INFO Counter:75 [PopulationWriter] dumped person # 873965
2024-12-18T05:11:19,615  INFO PlansDumpingImpl:94 finished plans dump.
2024-12-18T05:11:19,616  INFO ControlerListenerManagerImpl:248 calling notifyBeforeMobsim on org.matsim.core.population.VspPlansCleaner with priority 0.0
2024-12-18T05:11:19,716  INFO ControlerListenerManagerImpl:251 [it.0] all ControlerBeforeMobsimListeners called.
2024-12-18T05:11:19,716  INFO PrepareForMobsimImpl:86 Network seems to be multimodal. Create car-only network which is handed over to PersonPrepareForSim.
2024-12-18T05:11:19,716  INFO NetworkImpl:165  node # 1
2024-12-18T05:11:19,716  INFO NetworkImpl:165  node # 4
2024-12-18T05:11:19,717  INFO NetworkImpl:165  node # 16
2024-12-18T05:11:19,717  INFO NetworkImpl:165  node # 64
2024-12-18T05:11:19,717  INFO NetworkImpl:165  node # 256
2024-12-18T05:11:19,717  INFO NetworkImpl:165  node # 1024
2024-12-18T05:11:19,718  INFO NetworkImpl:161  link # 1
2024-12-18T05:11:19,718  INFO NetworkImpl:161  link # 4
2024-12-18T05:11:19,718  INFO NetworkImpl:161  link # 16
2024-12-18T05:11:19,719  INFO NetworkImpl:161  link # 64
2024-12-18T05:11:19,719  INFO NetworkImpl:161  link # 256
2024-12-18T05:11:19,721  INFO NetworkImpl:161  link # 1024
2024-12-18T05:11:19,728  INFO NetworkImpl:161  link # 4096
2024-12-18T05:11:19,732  INFO RandomizingTimeDistanceTravelDisutilityFactory:86  sigma: 3.0; resulting normalization: 0.011108996538242306
2024-12-18T05:11:19,734  INFO RandomizingTimeDistanceTravelDisutilityFactory:86  sigma: 3.0; resulting normalization: 0.011108996538242306
2024-12-18T05:11:19,778  INFO Counter:70 [PersonPrepareForSim] handled person # 2
2024-12-18T05:11:19,778  INFO Counter:70 [PersonPrepareForSim] handled person # 1
2024-12-18T05:11:19,779  INFO Counter:70 [PersonPrepareForSim] handled person # 8
2024-12-18T05:11:19,779  INFO Counter:70 [PersonPrepareForSim] handled person # 4
2024-12-18T05:11:19,779  INFO Counter:70 [PersonPrepareForSim] handled person # 16
2024-12-18T05:11:19,779  INFO Counter:70 [PersonPrepareForSim] handled person # 32
2024-12-18T05:11:19,779  INFO Counter:70 [PersonPrepareForSim] handled person # 64
2024-12-18T05:11:19,779  INFO Counter:70 [PersonPrepareForSim] handled person # 128
2024-12-18T05:11:19,779  INFO Counter:70 [PersonPrepareForSim] handled person # 256
2024-12-18T05:11:19,780  INFO Counter:70 [PersonPrepareForSim] handled person # 512
2024-12-18T05:11:19,780  INFO Counter:70 [PersonPrepareForSim] handled person # 1024
2024-12-18T05:11:19,781  INFO Counter:70 [PersonPrepareForSim] handled person # 2048
2024-12-18T05:11:19,783  INFO Counter:70 [PersonPrepareForSim] handled person # 4096
2024-12-18T05:11:19,786  INFO Counter:70 [PersonPrepareForSim] handled person # 8192
2024-12-18T05:11:19,792  INFO Counter:70 [PersonPrepareForSim] handled person # 16384
2024-12-18T05:11:19,803  INFO Counter:70 [PersonPrepareForSim] handled person # 32768
2024-12-18T05:11:19,821  INFO Counter:70 [PersonPrepareForSim] handled person # 65536
2024-12-18T05:11:19,828  INFO Counter:70 [PersonPrepareForSim] handled person # 131072
2024-12-18T05:11:19,842  INFO Counter:70 [PersonPrepareForSim] handled person # 262144
2024-12-18T05:11:19,866  INFO Counter:70 [PersonPrepareForSim] handled person # 524288
2024-12-18T05:11:19,893  INFO Counter:75 [PersonPrepareForSim] handled person # 873965
2024-12-18T05:11:19,942  INFO MobsimListenerManager:50 calling addQueueSimulationListener
2024-12-18T05:11:19,942  INFO MobsimListenerManager:54   assigned class org.matsim.core.mobsim.framework.listeners.MobsimListener to interface org.matsim.core.mobsim.framework.listeners.MobsimInitializedListener
2024-12-18T05:11:19,942  INFO MobsimListenerManager:54   assigned class org.matsim.core.mobsim.framework.listeners.MobsimListener to interface org.matsim.core.mobsim.framework.listeners.MobsimListener
2024-12-18T05:11:19,942  INFO MobsimListenerManager:54   assigned class org.matsim.core.mobsim.framework.listeners.MobsimListener to interface org.matsim.core.mobsim.framework.listeners.MobsimBeforeCleanupListener
2024-12-18T05:11:19,942  INFO MobsimListenerManager:54   assigned class org.matsim.core.mobsim.framework.listeners.MobsimListener to interface org.matsim.vis.snapshotwriters.SnapshotWriterManager
2024-12-18T05:11:19,942  INFO MobsimListenerManager:54   assigned class org.matsim.core.mobsim.framework.listeners.MobsimListener to interface org.matsim.core.mobsim.framework.listeners.MobsimAfterSimStepListener
2024-12-18T05:11:19,947  INFO QSimProvider:131 Added MobsimEngine class org.matsim.core.mobsim.qsim.ActivityEngineDefaultImpl
2024-12-18T05:11:19,947  INFO QSimProvider:137 Added Activityhandler class org.matsim.core.mobsim.qsim.ActivityEngineDefaultImpl
2024-12-18T05:11:19,960  WARN QueueWithBuffer:500 Link 10068307960002f too small: enlarge storage capacity from: 12.300728630918531 Vehicles to: 12.891220410895958 Vehicles.  This is not fatal, but modifies the traffic flow dynamics.
2024-12-18T05:11:19,961  WARN QueueWithBuffer:500 Link 10068307960002r too small: enlarge storage capacity from: 8.200485753945687 Vehicles to: 8.594146940597305 Vehicles.  This is not fatal, but modifies the traffic flow dynamics.
2024-12-18T05:11:19,961  WARN QueueWithBuffer:500 Link 1015553310001f too small: enlarge storage capacity from: 4.0622483526714666 Vehicles to: 4.849518573893665 Vehicles.  This is not fatal, but modifies the traffic flow dynamics.
2024-12-18T05:11:19,962  WARN QueueWithBuffer:500 Link 10370677300001f too small: enlarge storage capacity from: 4.8073971391129025 Vehicles to: 5.974356183777864 Vehicles.  This is not fatal, but modifies the traffic flow dynamics.
2024-12-18T05:11:19,962  WARN QueueWithBuffer:500 Link 10413495490001f too small: enlarge storage capacity from: 1.9272508696835657 Vehicles to: 2.594116865131002 Vehicles.  This is not fatal, but modifies the traffic flow dynamics.
2024-12-18T05:11:19,962  WARN QueueWithBuffer:500 Link 10413599840000f too small: enlarge storage capacity from: 6.728969221743504 Vehicles to: 7.623492299525292 Vehicles.  This is not fatal, but modifies the traffic flow dynamics.
2024-12-18T05:11:19,963  WARN QueueWithBuffer:500 Link 10538620160000f too small: enlarge storage capacity from: 12.933359878953723 Vehicles to: 14.867432372760312 Vehicles.  This is not fatal, but modifies the traffic flow dynamics.
2024-12-18T05:11:19,963  WARN QueueWithBuffer:500 Link 10546499840000f too small: enlarge storage capacity from: 0.8028099897396065 Vehicles to: 1.2670394598900487 Vehicles.  This is not fatal, but modifies the traffic flow dynamics.
2024-12-18T05:11:19,963  WARN QueueWithBuffer:500 Link 10546499840000r too small: enlarge storage capacity from: 0.8028099897396065 Vehicles to: 1.2670394598900487 Vehicles.  This is not fatal, but modifies the traffic flow dynamics.
2024-12-18T05:11:19,964  WARN QueueWithBuffer:500 Link 10627669770000f too small: enlarge storage capacity from: 3.0150426719320538 Vehicles to: 4.294171577875533 Vehicles.  This is not fatal, but modifies the traffic flow dynamics.
2024-12-18T05:11:19,964  WARN QueueWithBuffer:500 Link 1069639280001f too small: enlarge storage capacity from: 6.046337933817413 Vehicles to: 7.1177025738749125 Vehicles.  This is not fatal, but modifies the traffic flow dynamics.
2024-12-18T05:11:19,964  WARN QueueWithBuffer:503 Additional warnings of this type are suppressed.
2024-12-18T05:11:19,985  INFO QSimProvider:143 Added DepartureHandler class org.matsim.core.mobsim.qsim.qnetsimengine.VehicularDepartureHandler
2024-12-18T05:11:19,986  INFO QSimProvider:131 Added MobsimEngine class org.matsim.core.mobsim.qsim.qnetsimengine.QNetsimEngineWithThreadpool
2024-12-18T05:11:19,986  INFO QSimProvider:131 Added MobsimEngine class org.matsim.core.mobsim.qsim.DefaultTeleportationEngine
2024-12-18T05:11:19,986  INFO QSimProvider:143 Added DepartureHandler class org.matsim.core.mobsim.qsim.DefaultTeleportationEngine
2024-12-18T05:11:19,986  INFO QSimProvider:149 Added AgentSource class org.matsim.core.mobsim.qsim.agents.PopulationAgentSource
2024-12-18T05:11:19,986  INFO MobsimListenerManager:50 calling addQueueSimulationListener
2024-12-18T05:11:19,986  INFO MobsimListenerManager:54   assigned class org.matsim.core.mobsim.framework.listeners.MobsimListener to interface org.matsim.core.mobsim.framework.listeners.MobsimListener
2024-12-18T05:11:19,986  INFO MobsimListenerManager:54   assigned class org.matsim.core.mobsim.framework.listeners.MobsimListener to interface org.matsim.core.mobsim.qsim.messagequeueengine.MessageQueueEngine
2024-12-18T05:11:19,986  INFO MobsimListenerManager:54   assigned class org.matsim.core.mobsim.framework.listeners.MobsimListener to interface org.matsim.core.mobsim.framework.listeners.MobsimBeforeSimStepListener
2024-12-18T05:11:19,986  INFO QSimProvider:155 Added MobsimListener class org.matsim.core.mobsim.qsim.messagequeueengine.MessageQueueEngine
2024-12-18T05:11:19,991  INFO PopulationUtils:1247 adding scenario element for allpersons container
2024-12-18T05:11:19,991  INFO PopulationImpl:107  person # 1
2024-12-18T05:11:19,991  INFO PopulationImpl:107  person # 4
2024-12-18T05:11:19,991  INFO PopulationImpl:107  person # 16
2024-12-18T05:11:19,992  INFO PopulationImpl:107  person # 64
2024-12-18T05:11:19,994  INFO PopulationImpl:107  person # 256
2024-12-18T05:11:19,998  INFO PopulationImpl:107  person # 1024
2024-12-18T05:11:20,005  INFO PopulationImpl:107  person # 4096
2024-12-18T05:11:20,025  INFO PopulationImpl:107  person # 16384
2024-12-18T05:11:20,087  INFO PopulationImpl:107  person # 65536
2024-12-18T05:11:20,470  INFO PopulationImpl:107  person # 262144
2024-12-18T05:11:20,950  INFO AbstractQNetsimEngine:426 Assigned 3922 nodes and 4661 links to QSimEngineRunner #0
2024-12-18T05:11:21,911  INFO EventsManagerImpl:115  event # 1
2024-12-18T05:11:21,913  INFO EventsManagerImpl:115  event # 4
2024-12-18T05:11:21,914  INFO EventsManagerImpl:115  event # 16
2024-12-18T05:11:21,916  INFO EventsManagerImpl:115  event # 64
2024-12-18T05:11:21,923  INFO EventsManagerImpl:115  event # 256
2024-12-18T05:11:21,937  INFO EventsManagerImpl:115  event # 1024
2024-12-18T05:11:21,964  INFO EventsManagerImpl:115  event # 4096
2024-12-18T05:11:22,051  INFO EventsManagerImpl:115  event # 16384
2024-12-18T05:11:22,352  INFO EventsManagerImpl:115  event # 65536
2024-12-18T05:11:23,497  INFO EventsManagerImpl:115  event # 262144
2024-12-18T05:11:24,710  INFO AbstractQNetsimEngine:364 SIMULATION (QNetsimEngine) AT 08:00:00 : #links=0 #nodes=0
2024-12-18T05:11:24,716  INFO QSim:566 SIMULATION (NEW QSim) AT 08:00:00 : #Veh=0 lost=0 simT=0.0s realT=4s; (s/r): 0.0
2024-12-18T05:11:27,688  INFO EventsManagerImpl:115  event # 1048576
2024-12-18T05:11:31,019  INFO Gbl:196 Thread performance: Thread=class org.matsim.core.events.SimStepParallelEventsManagerImpl$ProcessEventsRunnable0  cpu-time=8.547505949sec
2024-12-18T05:11:31,019  INFO AbstractController$9:237 ### ITERATION 0 fires after mobsim event
2024-12-18T05:11:31,019  INFO ControlerListenerManagerImpl:269 calling notifyAfterMobsim on org.matsim.analysis.LegTimesControlerListener with priority 0.0
2024-12-18T05:11:31,022  INFO LegTimesControlerListener:51 [0] average trip (probably: leg) duration is: 0 seconds = 00:00:00
2024-12-18T05:11:31,022  INFO ControlerListenerManagerImpl:269 calling notifyAfterMobsim on org.matsim.core.events.MobsimScopeEventHandling with priority 0.0
2024-12-18T05:11:31,023  INFO ControlerListenerManagerImpl:269 calling notifyAfterMobsim on org.matsim.core.scoring.EventsToActivities$1 with priority 0.0
2024-12-18T05:11:31,023  WARN CharyparNagelActivityScoring:247 The first and the last activity do not have the same type. 
2024-12-18T05:11:31,024  WARN CharyparNagelActivityScoring:248 Will score the first activity from midnight to its end, and the last activity from its start to midnight.
2024-12-18T05:11:31,024  WARN CharyparNagelActivityScoring:249 Because of the nonlinear function, this is not the same as scoring from start to end.
2024-12-18T05:11:31,029  WARN CharyparNagelActivityScoring:250 first activity: act [type=home][coord=[x=-122.41180987595612 | y=37.80824283588315]][linkId=8774326010001f][startTime=undefined][endTime=08:00:00][duration=undefined][facilityId=null]
2024-12-18T05:11:31,029  WARN CharyparNagelActivityScoring:251 last activity: act [type=work][coord=[x=-122.40538630990079 | y=37.804956972653066]][linkId=8774326010001f][startTime=08:00:00][endTime=undefined][duration=undefined][facilityId=null]
2024-12-18T05:11:31,030  WARN CharyparNagelActivityScoring:252 This may also happen when plans are not completed when the simulation ends.
2024-12-18T05:11:31,030  WARN CharyparNagelActivityScoring:254 Additional warnings of this type are suppressed.
2024-12-18T05:11:31,439  INFO ControlerListenerManagerImpl:272 [it.0] all ControlerAfterMobsimListeners called.
2024-12-18T05:11:31,440  INFO AbstractController$4:162 ### ITERATION 0 fires scoring event
2024-12-18T05:11:31,440  INFO ControlerListenerManagerImpl:197 calling notifyScoring on org.matsim.core.scoring.PlansScoringImpl with priority 0.0
2024-12-18T05:11:31,772  INFO NewScoreAssignerImpl:58 it: 0 msaStart: null
2024-12-18T05:11:32,016  INFO ControlerListenerManagerImpl:209 [it.0] all ControlerScoringListeners called.
2024-12-18T05:11:32,017  INFO AbstractController$5:170 ### ITERATION 0 fires iteration end event
2024-12-18T05:11:32,017  INFO ControlerListenerManagerImpl:172 calling notifyIterationEnds on org.matsim.core.controler.corelisteners.EventsHandlingImpl with priority 0.0
2024-12-18T05:11:32,018  INFO EventsManagerImpl:159 removing Event-Handler: org.matsim.core.events.algorithms.EventWriterXML
2024-12-18T05:11:32,018  INFO EventsManagerImpl:159 removing Event-Handler: org.matsim.core.events.algorithms.EventWriterXML
2024-12-18T05:11:32,018  INFO ControlerListenerManagerImpl:172 calling notifyIterationEnds on org.matsim.core.scoring.PlansScoringImpl with priority 0.0
2024-12-18T05:11:32,415  INFO ControlerListenerManagerImpl:180 calling notifyIterationEnds on org.matsim.counts.CountsControlerListener with priority 0.0
2024-12-18T05:11:32,415  INFO ControlerListenerManagerImpl:180 calling notifyIterationEnds on org.matsim.analysis.ModeStatsControlerListener with priority 0.0
2024-12-18T05:11:32,514  INFO ModeStatsControlerListener:133 Mode shares over all 0.0 trips found. MainModeIdentifier: class org.matsim.core.router.DefaultAnalysisMainModeIdentifier
2024-12-18T05:11:32,515  INFO ControlerListenerManagerImpl:180 calling notifyIterationEnds on org.matsim.analysis.ScoreStatsControlerListener with priority 0.0
2024-12-18T05:11:32,604  INFO ScoreStatsControlerListener:154 -- avg. score of the executed plan of each agent: 101.51740267879546
2024-12-18T05:11:32,604  INFO ScoreStatsControlerListener:155 -- avg. score of the worst plan of each agent: 101.51740267879546
2024-12-18T05:11:32,605  INFO ScoreStatsControlerListener:156 -- avg. of the avg. plan score per agent: 101.51740267879546
2024-12-18T05:11:32,605  INFO ScoreStatsControlerListener:157 -- avg. score of the best plan of each agent: 101.51740267879546
2024-12-18T05:11:32,610  INFO ControlerListenerManagerImpl:180 calling notifyIterationEnds on org.matsim.analysis.IterationTravelStatsControlerListener with priority 0.0
2024-12-18T05:11:32,732  INFO TravelDistanceStats:115 -- average leg distance per plan (executed plans only): 0.0 meters
2024-12-18T05:11:32,733  INFO TravelDistanceStats:116 average leg distance per Person (executed plans only): 0.0 meters (statistic on all 0 legs which have a finite distance)
2024-12-18T05:11:32,733  INFO TravelDistanceStats:117 -- average trip distance per plan (executed plans only): 0.0 meters
2024-12-18T05:11:32,733  INFO TravelDistanceStats:118 average trip distance per Person (executed plans only): 0.0 meters (statistic on all 0 trips which have a finite distance)
2024-12-18T05:11:32,733  INFO TravelDistanceStats:119 (TravelDistanceStats takes an average over all legs where the simulation reports travelled (network) distances
2024-12-18T05:11:32,733  INFO TravelDistanceStats:120 (and teleported legs whose route contains a distance.)
2024-12-18T05:11:32,957  INFO ActivityWriter:39 Writing all Activities to activitiescsv
2024-12-18T05:11:40,986  INFO ActivityWriter:59 ...done
2024-12-18T05:11:40,986  INFO ControlerListenerManagerImpl:180 calling notifyIterationEnds on org.matsim.analysis.LegHistogramListener with priority 0.0
2024-12-18T05:11:40,990  INFO LegHistogramListener:73 number of legs:	0	100%
2024-12-18T05:11:41,072  INFO ControlerListenerManagerImpl:180 calling notifyIterationEnds on org.matsim.analysis.LinkStatsControlerListener with priority 0.0
2024-12-18T05:11:41,072  INFO ControlerListenerManagerImpl:184 [it.0] all ControlerIterationEndsListeners called.
2024-12-18T05:11:41,152  INFO AbstractController:184 ### ITERATION 0 ENDS
2024-12-18T05:11:41,152  INFO AbstractController:185 ###################################################
2024-12-18T05:11:41,152  INFO AbstractController:136 ###################################################
2024-12-18T05:11:41,152  INFO AbstractController:137 ### ITERATION 1 BEGINS
2024-12-18T05:11:41,152  INFO ControlerListenerManagerImpl:156 calling notifyIterationStarts on org.matsim.analysis.LegHistogramListener with priority 0.0
2024-12-18T05:11:41,152  INFO ControlerListenerManagerImpl:156 calling notifyIterationStarts on org.matsim.analysis.LinkStatsControlerListener with priority 0.0
2024-12-18T05:11:41,152  INFO ControlerListenerManagerImpl:156 calling notifyIterationStarts on org.matsim.core.replanning.ReplanningContextImpl with priority 0.0
2024-12-18T05:11:41,152  INFO ControlerListenerManagerImpl:156 calling notifyIterationStarts on org.matsim.core.scoring.ScoringFunctionsForPopulation$$Lambda$233/0x00007f599c350d40 with priority 0.0
2024-12-18T05:11:41,702  INFO ControlerListenerManagerImpl:156 calling notifyIterationStarts on org.matsim.core.scoring.ExperiencedPlansServiceImpl$1 with priority 0.0
2024-12-18T05:11:41,749  INFO ControlerListenerManagerImpl:159 [it.1] all ControlerIterationStartsListeners called.
2024-12-18T05:11:41,750  INFO ControlerListenerManagerImpl:221 calling notifyReplanning on org.matsim.core.controler.corelisteners.PlansReplanningImpl with priority 0.0
2024-12-18T05:11:41,751  INFO RandomizingTimeDistanceTravelDisutilityFactory:86  sigma: 3.0; resulting normalization: 0.011108996538242306
2024-12-18T05:11:41,751  INFO RandomizingTimeDistanceTravelDisutilityFactory:86  sigma: 3.0; resulting normalization: 0.011108996538242306
2024-12-18T05:11:42,030  INFO GenericPlanStrategyImpl:135 Plan-Strategy finished, 786510 plans handled. Strategy: BestPlanSelector
2024-12-18T05:11:42,030  INFO AbstractMultithreadedModule:142 [PlanRouter] starting 2 threads, handling 87455 plans
2024-12-18T05:11:42,031  INFO Counter:70 [PlanRouter] handled plan # 1
2024-12-18T05:11:42,031  INFO Counter:70 [PlanRouter] handled plan # 4
2024-12-18T05:11:42,031  INFO Counter:70 [PlanRouter] handled plan # 2
2024-12-18T05:11:42,031  INFO Counter:70 [PlanRouter] handled plan # 8
2024-12-18T05:11:42,031  INFO Counter:70 [PlanRouter] handled plan # 16
2024-12-18T05:11:42,031  INFO Counter:70 [PlanRouter] handled plan # 32
2024-12-18T05:11:42,032  INFO Counter:70 [PlanRouter] handled plan # 64
2024-12-18T05:11:42,032  INFO Counter:70 [PlanRouter] handled plan # 128
2024-12-18T05:11:42,032  INFO Counter:70 [PlanRouter] handled plan # 256
2024-12-18T05:11:42,032  INFO Counter:70 [PlanRouter] handled plan # 512
2024-12-18T05:11:42,032  INFO Counter:70 [PlanRouter] handled plan # 1024
2024-12-18T05:11:42,032  INFO Counter:70 [PlanRouter] handled plan # 2048
2024-12-18T05:11:42,033  INFO Counter:70 [PlanRouter] handled plan # 4096
2024-12-18T05:11:42,034  INFO Counter:70 [PlanRouter] handled plan # 8192
2024-12-18T05:11:42,035  INFO Counter:70 [PlanRouter] handled plan # 16384
2024-12-18T05:11:42,039  INFO Counter:70 [PlanRouter] handled plan # 32768
2024-12-18T05:11:42,045  INFO Counter:70 [PlanRouter] handled plan # 65536
2024-12-18T05:11:42,046  INFO AbstractMultithreadedModule:157 [PlanRouter] all 2 threads finished.
2024-12-18T05:11:42,046  INFO GenericPlanStrategyImpl:135 Plan-Strategy finished, 87455 plans handled. Strategy: RandomPlanSelector_ReRoute
2024-12-18T05:11:42,047  INFO ControlerListenerManagerImpl:230 [it.1] all ControlerReplanningListeners called.
2024-12-18T05:11:42,047  INFO ControlerListenerManagerImpl:242 calling notifyBeforeMobsim on org.matsim.core.controler.corelisteners.EventsHandlingImpl with priority 0.0
2024-12-18T05:11:42,047  INFO EventsManagerImpl:168 resetting Event-Handlers
2024-12-18T05:11:42,047  INFO EventsManagerImpl:175   org.matsim.core.trafficmonitoring.TravelTimeCalculator
2024-12-18T05:11:42,047  INFO EventsManagerImpl:175   org.matsim.analysis.VolumesAnalyzer
2024-12-18T05:11:42,048  INFO EventsManagerImpl:175   org.matsim.core.scoring.ScoringFunctionsForPopulation
2024-12-18T05:11:42,049  INFO EventsManagerImpl:175   org.matsim.analysis.LegHistogram
2024-12-18T05:11:42,049  INFO EventsManagerImpl:175   org.matsim.analysis.CalcLegTimes
2024-12-18T05:11:42,052  INFO EventsManagerImpl:138 adding Event-Handler: org.matsim.core.events.algorithms.EventWriterXML
2024-12-18T05:11:42,052  INFO EventsManagerImpl:144   org.matsim.core.events.algorithms.EventWriter
[...]
2024-12-18T05:11:49,340  INFO NetworkImpl:165  node # 1
2024-12-18T05:11:49,340  INFO NetworkImpl:165  node # 4
2024-12-18T05:11:49,340  INFO NetworkImpl:165  node # 16
2024-12-18T05:11:49,340  INFO NetworkImpl:165  node # 64
2024-12-18T05:11:49,340  INFO NetworkImpl:165  node # 256
2024-12-18T05:11:49,340  INFO NetworkImpl:165  node # 1024
2024-12-18T05:11:49,342  INFO NetworkImpl:161  link # 1
2024-12-18T05:11:49,342  INFO NetworkImpl:161  link # 4
2024-12-18T05:11:49,342  INFO NetworkImpl:161  link # 16
2024-12-18T05:11:49,342  INFO NetworkImpl:161  link # 64
2024-12-18T05:11:49,342  INFO NetworkImpl:161  link # 256
2024-12-18T05:11:49,344  INFO NetworkImpl:161  link # 1024
2024-12-18T05:11:49,349  INFO NetworkImpl:161  link # 4096
2024-12-18T05:11:49,351  INFO RandomizingTimeDistanceTravelDisutilityFactory:86  sigma: 3.0; resulting normalization: 0.011108996538242306
2024-12-18T05:11:49,353  INFO RandomizingTimeDistanceTravelDisutilityFactory:86  sigma: 3.0; resulting normalization: 0.011108996538242306
2024-12-18T05:11:49,395  INFO Counter:70 [PersonPrepareForSim] handled person # 2
2024-12-18T05:11:49,395  INFO Counter:70 [PersonPrepareForSim] handled person # 1
2024-12-18T05:11:49,396  INFO Counter:70 [PersonPrepareForSim] handled person # 4
2024-12-18T05:11:49,396  INFO Counter:70 [PersonPrepareForSim] handled person # 8
2024-12-18T05:11:49,396  INFO Counter:70 [PersonPrepareForSim] handled person # 16
2024-12-18T05:11:49,396  INFO Counter:70 [PersonPrepareForSim] handled person # 32
2024-12-18T05:11:49,397  INFO Counter:70 [PersonPrepareForSim] handled person # 64
2024-12-18T05:11:49,397  INFO Counter:70 [PersonPrepareForSim] handled person # 128
2024-12-18T05:11:49,397  INFO Counter:70 [PersonPrepareForSim] handled person # 256
2024-12-18T05:11:49,397  INFO Counter:70 [PersonPrepareForSim] handled person # 512
2024-12-18T05:11:49,397  INFO Counter:70 [PersonPrepareForSim] handled person # 1024
2024-12-18T05:11:49,397  INFO Counter:70 [PersonPrepareForSim] handled person # 2048
2024-12-18T05:11:49,397  INFO Counter:70 [PersonPrepareForSim] handled person # 4096
2024-12-18T05:11:49,398  INFO Counter:70 [PersonPrepareForSim] handled person # 8192
2024-12-18T05:11:49,398  INFO Counter:70 [PersonPrepareForSim] handled person # 16384
2024-12-18T05:11:49,400  INFO Counter:70 [PersonPrepareForSim] handled person # 32768
2024-12-18T05:11:49,402  INFO Counter:70 [PersonPrepareForSim] handled person # 65536
2024-12-18T05:11:49,407  INFO Counter:70 [PersonPrepareForSim] handled person # 131072
2024-12-18T05:11:49,417  INFO Counter:70 [PersonPrepareForSim] handled person # 262144
2024-12-18T05:11:49,435  INFO Counter:70 [PersonPrepareForSim] handled person # 524288
2024-12-18T05:11:49,462  INFO Counter:75 [PersonPrepareForSim] handled person # 873965
2024-12-18T05:11:49,476  INFO MobsimListenerManager:50 calling addQueueSimulationListener
2024-12-18T05:11:49,476  INFO MobsimListenerManager:54   assigned class org.matsim.core.mobsim.framework.listeners.MobsimListener to interface org.matsim.core.mobsim.framework.listeners.MobsimInitializedListener
2024-12-18T05:11:49,477  INFO MobsimListenerManager:54   assigned class org.matsim.core.mobsim.framework.listeners.MobsimListener to interface org.matsim.core.mobsim.framework.listeners.MobsimListener
2024-12-18T05:11:49,477  INFO MobsimListenerManager:54   assigned class org.matsim.core.mobsim.framework.listeners.MobsimListener to interface org.matsim.core.mobsim.framework.listeners.MobsimBeforeCleanupListener
2024-12-18T05:11:49,477  INFO MobsimListenerManager:54   assigned class org.matsim.core.mobsim.framework.listeners.MobsimListener to interface org.matsim.vis.snapshotwriters.SnapshotWriterManager
2024-12-18T05:11:49,477  INFO MobsimListenerManager:54   assigned class org.matsim.core.mobsim.framework.listeners.MobsimListener to interface org.matsim.core.mobsim.framework.listeners.MobsimAfterSimStepListener
2024-12-18T05:11:49,477  INFO QSimProvider:131 Added MobsimEngine class org.matsim.core.mobsim.qsim.ActivityEngineDefaultImpl
2024-12-18T05:11:49,477  INFO QSimProvider:137 Added Activityhandler class org.matsim.core.mobsim.qsim.ActivityEngineDefaultImpl
2024-12-18T05:11:49,486  INFO QSimProvider:143 Added DepartureHandler class org.matsim.core.mobsim.qsim.qnetsimengine.VehicularDepartureHandler
2024-12-18T05:11:49,486  INFO QSimProvider:131 Added MobsimEngine class org.matsim.core.mobsim.qsim.qnetsimengine.QNetsimEngineWithThreadpool
2024-12-18T05:11:49,486  INFO QSimProvider:131 Added MobsimEngine class org.matsim.core.mobsim.qsim.DefaultTeleportationEngine
2024-12-18T05:11:49,486  INFO QSimProvider:143 Added DepartureHandler class org.matsim.core.mobsim.qsim.DefaultTeleportationEngine
2024-12-18T05:11:49,486  INFO QSimProvider:149 Added AgentSource class org.matsim.core.mobsim.qsim.agents.PopulationAgentSource
2024-12-18T05:11:49,487  INFO MobsimListenerManager:50 calling addQueueSimulationListener
2024-12-18T05:11:49,487  INFO MobsimListenerManager:54   assigned class org.matsim.core.mobsim.framework.listeners.MobsimListener to interface org.matsim.core.mobsim.framework.listeners.MobsimListener
2024-12-18T05:11:49,487  INFO MobsimListenerManager:54   assigned class org.matsim.core.mobsim.framework.listeners.MobsimListener to interface org.matsim.core.mobsim.qsim.messagequeueengine.MessageQueueEngine
2024-12-18T05:11:49,487  INFO MobsimListenerManager:54   assigned class org.matsim.core.mobsim.framework.listeners.MobsimListener to interface org.matsim.core.mobsim.framework.listeners.MobsimBeforeSimStepListener
2024-12-18T05:11:49,487  INFO QSimProvider:155 Added MobsimListener class org.matsim.core.mobsim.qsim.messagequeueengine.MessageQueueEngine
2024-12-18T05:11:50,092  INFO AbstractQNetsimEngine:426 Assigned 3922 nodes and 4661 links to QSimEngineRunner #0
2024-12-18T05:11:52,841  INFO AbstractQNetsimEngine:364 SIMULATION (QNetsimEngine) AT 08:00:00 : #links=0 #nodes=0
2024-12-18T05:11:52,841  INFO QSim:566 SIMULATION (NEW QSim) AT 08:00:00 : #Veh=0 lost=0 simT=0.0s realT=3s; (s/r): 0.0
2024-12-18T05:11:59,453  INFO AbstractController$9:237 ### ITERATION 1 fires after mobsim event
2024-12-18T05:11:59,453  INFO ControlerListenerManagerImpl:269 calling notifyAfterMobsim on org.matsim.analysis.LegTimesControlerListener with priority 0.0
2024-12-18T05:11:59,453  INFO Gbl:196 Thread performance: Thread=class org.matsim.core.events.SimStepParallelEventsManagerImpl$ProcessEventsRunnable0  cpu-time=8.25573496sec
2024-12-18T05:11:59,453  INFO LegTimesControlerListener:51 [1] average trip (probably: leg) duration is: 0 seconds = 00:00:00
2024-12-18T05:11:59,453  INFO ControlerListenerManagerImpl:269 calling notifyAfterMobsim on org.matsim.core.events.MobsimScopeEventHandling with priority 0.0
2024-12-18T05:11:59,453  INFO ControlerListenerManagerImpl:269 calling notifyAfterMobsim on org.matsim.core.scoring.EventsToActivities$1 with priority 0.0
2024-12-18T05:11:59,830  INFO ControlerListenerManagerImpl:272 [it.1] all ControlerAfterMobsimListeners called.
2024-12-18T05:11:59,831  INFO AbstractController$4:162 ### ITERATION 1 fires scoring event
2024-12-18T05:11:59,831  INFO ControlerListenerManagerImpl:197 calling notifyScoring on org.matsim.core.scoring.PlansScoringImpl with priority 0.0
2024-12-18T05:12:00,151  INFO NewScoreAssignerImpl:58 it: 1 msaStart: null
2024-12-18T05:12:00,507  INFO ControlerListenerManagerImpl:209 [it.1] all ControlerScoringListeners called.
2024-12-18T05:12:00,508  INFO AbstractController$5:170 ### ITERATION 1 fires iteration end event
2024-12-18T05:12:00,508  INFO ControlerListenerManagerImpl:172 calling notifyIterationEnds on org.matsim.core.controler.corelisteners.EventsHandlingImpl with priority 0.0
2024-12-18T05:12:00,509  INFO EventsManagerImpl:159 removing Event-Handler: org.matsim.core.events.algorithms.EventWriterXML
2024-12-18T05:12:00,509  INFO EventsManagerImpl:159 removing Event-Handler: org.matsim.core.events.algorithms.EventWriterXML
2024-12-18T05:12:00,509  INFO ControlerListenerManagerImpl:172 calling notifyIterationEnds on org.matsim.core.scoring.PlansScoringImpl with priority 0.0
2024-12-18T05:12:00,727  INFO ControlerListenerManagerImpl:180 calling notifyIterationEnds on org.matsim.counts.CountsControlerListener with priority 0.0
2024-12-18T05:12:00,727  INFO ControlerListenerManagerImpl:180 calling notifyIterationEnds on org.matsim.analysis.ModeStatsControlerListener with priority 0.0
2024-12-18T05:12:00,847  INFO ModeStatsControlerListener:133 Mode shares over all 0.0 trips found. MainModeIdentifier: class org.matsim.core.router.DefaultAnalysisMainModeIdentifier
2024-12-18T05:12:00,921  INFO ControlerListenerManagerImpl:180 calling notifyIterationEnds on org.matsim.analysis.ScoreStatsControlerListener with priority 0.0
2024-12-18T05:12:01,046  INFO ScoreStatsControlerListener:154 -- avg. score of the executed plan of each agent: 101.51740267879546
2024-12-18T05:12:01,046  INFO ScoreStatsControlerListener:155 -- avg. score of the worst plan of each agent: 101.51740267879546
2024-12-18T05:12:01,046  INFO ScoreStatsControlerListener:156 -- avg. of the avg. plan score per agent: 101.51740267879546
2024-12-18T05:12:01,047  INFO ScoreStatsControlerListener:157 -- avg. score of the best plan of each agent: 101.51740267879546
2024-12-18T05:12:01,085  INFO ControlerListenerManagerImpl:180 calling notifyIterationEnds on org.matsim.analysis.IterationTravelStatsControlerListener with priority 0.0
2024-12-18T05:12:01,117  INFO TravelDistanceStats:115 -- average leg distance per plan (executed plans only): 0.0 meters
2024-12-18T05:12:01,117  INFO TravelDistanceStats:116 average leg distance per Person (executed plans only): 0.0 meters (statistic on all 0 legs which have a finite distance)
2024-12-18T05:12:01,117  INFO TravelDistanceStats:117 -- average trip distance per plan (executed plans only): 0.0 meters
2024-12-18T05:12:01,117  INFO TravelDistanceStats:118 average trip distance per Person (executed plans only): 0.0 meters (statistic on all 0 trips which have a finite distance)
2024-12-18T05:12:01,117  INFO TravelDistanceStats:119 (TravelDistanceStats takes an average over all legs where the simulation reports travelled (network) distances
2024-12-18T05:12:01,117  INFO TravelDistanceStats:120 (and teleported legs whose route contains a distance.)
2024-12-18T05:12:01,481  INFO ActivityWriter:39 Writing all Activities to activitiescsv
2024-12-18T05:12:09,509  INFO ActivityWriter:59 ...done
2024-12-18T05:12:09,509  INFO ControlerListenerManagerImpl:180 calling notifyIterationEnds on org.matsim.analysis.LegHistogramListener with priority 0.0
2024-12-18T05:12:09,510  INFO LegHistogramListener:73 number of legs:	0	100%
2024-12-18T05:12:09,558  INFO MemoryObserver:42 used RAM: 6225 MB  free: 3174 MB  total: 9400 MB
2024-12-18T05:12:09,623  INFO ControlerListenerManagerImpl:180 calling notifyIterationEnds on org.matsim.analysis.LinkStatsControlerListener with priority 0.0
2024-12-18T05:12:09,623  INFO ControlerListenerManagerImpl:184 [it.1] all ControlerIterationEndsListeners called.
2024-12-18T05:12:09,687  INFO AbstractController:184 ### ITERATION 1 ENDS
2024-12-18T05:12:09,687  INFO AbstractController:185 ###################################################
2024-12-18T05:12:09,687  INFO MatsimRuntimeModifications:80 S H U T D O W N   ---   start shutdown.
2024-12-18T05:12:09,688  INFO ControlerListenerManagerImpl:128 calling notifyShutdown on org.matsim.core.controler.corelisteners.EventsHandlingImpl with priority 0.0
2024-12-18T05:12:09,688  INFO ControlerListenerManagerImpl:128 calling notifyShutdown on org.matsim.core.controler.corelisteners.DumpDataAtEndImpl with priority 0.0
2024-12-18T05:12:10,032  INFO Counter:70 [PopulationWriter] dumped person # 1
2024-12-18T05:12:10,032  INFO Counter:70 [PopulationWriter] dumped person # 2
2024-12-18T05:12:10,032  INFO Counter:70 [PopulationWriter] dumped person # 4
2024-12-18T05:12:10,032  INFO Counter:70 [PopulationWriter] dumped person # 8
2024-12-18T05:12:10,032  INFO Counter:70 [PopulationWriter] dumped person # 16
2024-12-18T05:12:10,032  INFO Counter:70 [PopulationWriter] dumped person # 32
2024-12-18T05:12:10,032  INFO Counter:70 [PopulationWriter] dumped person # 64
2024-12-18T05:12:10,032  INFO Counter:70 [PopulationWriter] dumped person # 128
2024-12-18T05:12:10,032  INFO Counter:70 [ParallelPopulationWriterV6] dumped person # 1
2024-12-18T05:12:10,032  INFO Counter:70 [PopulationWriter] dumped person # 256
2024-12-18T05:12:10,033  INFO Counter:70 [ParallelPopulationWriterV6] dumped person # 2
2024-12-18T05:12:10,033  INFO Counter:70 [PopulationWriter] dumped person # 512
2024-12-18T05:12:10,033  INFO Counter:70 [ParallelPopulationWriterV6] dumped person # 4
2024-12-18T05:12:10,033  INFO Counter:70 [ParallelPopulationWriterV6] dumped person # 8
2024-12-18T05:12:10,033  INFO Counter:70 [ParallelPopulationWriterV6] dumped person # 16
2024-12-18T05:12:10,033  INFO Counter:70 [PopulationWriter] dumped person # 1024
2024-12-18T05:12:10,034  INFO Counter:70 [ParallelPopulationWriterV6] dumped person # 32
2024-12-18T05:12:10,034  INFO Counter:70 [ParallelPopulationWriterV6] dumped person # 64
2024-12-18T05:12:10,035  INFO Counter:70 [ParallelPopulationWriterV6] dumped person # 128
2024-12-18T05:12:10,036  INFO Counter:70 [ParallelPopulationWriterV6] dumped person # 256
2024-12-18T05:12:10,039  INFO Counter:70 [ParallelPopulationWriterV6] dumped person # 512
2024-12-18T05:12:10,042  INFO Counter:70 [ParallelPopulationWriterV6] dumped person # 1024
2024-12-18T05:12:10,043  INFO Counter:70 [PopulationWriter] dumped person # 2048
2024-12-18T05:12:10,050  INFO Counter:70 [ParallelPopulationWriterV6] dumped person # 2048
2024-12-18T05:12:10,058  INFO Counter:70 [PopulationWriter] dumped person # 4096
2024-12-18T05:12:10,065  INFO Counter:70 [ParallelPopulationWriterV6] dumped person # 4096
2024-12-18T05:12:10,091  INFO Counter:70 [PopulationWriter] dumped person # 8192
2024-12-18T05:12:10,099  INFO Counter:70 [ParallelPopulationWriterV6] dumped person # 8192
2024-12-18T05:12:10,153  INFO Counter:70 [PopulationWriter] dumped person # 16384
2024-12-18T05:12:10,160  INFO Counter:70 [ParallelPopulationWriterV6] dumped person # 16384
2024-12-18T05:12:10,275  INFO Counter:70 [PopulationWriter] dumped person # 32768
2024-12-18T05:12:10,282  INFO Counter:70 [ParallelPopulationWriterV6] dumped person # 32768
2024-12-18T05:12:10,510  INFO Counter:70 [PopulationWriter] dumped person # 65536
2024-12-18T05:12:10,518  INFO Counter:70 [ParallelPopulationWriterV6] dumped person # 65536
2024-12-18T05:12:11,029  INFO Counter:70 [PopulationWriter] dumped person # 131072
2024-12-18T05:12:11,036  INFO Counter:70 [ParallelPopulationWriterV6] dumped person # 131072
2024-12-18T05:12:11,989  INFO Counter:70 [PopulationWriter] dumped person # 262144
2024-12-18T05:12:11,997  INFO Counter:70 [ParallelPopulationWriterV6] dumped person # 262144
2024-12-18T05:12:13,874  INFO Counter:70 [PopulationWriter] dumped person # 524288
2024-12-18T05:12:13,881  INFO Counter:70 [ParallelPopulationWriterV6] dumped person # 524288
2024-12-18T05:12:16,473  INFO Counter:75 [ParallelPopulationWriterV6] dumped person # 873965
2024-12-18T05:12:16,473  INFO PopulationWriter:150 Population written to: scenarios/equil/output/run_20241218_051102/output_plans.xml.gz
2024-12-18T05:12:16,474  INFO Counter:75 [PopulationWriter] dumped person # 873965
2024-12-18T05:12:16,475  INFO NetworkWriter:70 Writing network to file: scenarios/equil/output/run_20241218_051102/output_network.xml.gz...
2024-12-18T05:12:16,560  INFO NetworkWriter:73 done.
2024-12-18T05:12:16,566  INFO Config:550 setting context to [file:/home/opc/matsim-example-project/]
2024-12-18T05:12:16,568  INFO Config:550 setting context to [file:/home/opc/matsim-example-project/]
2024-12-18T05:12:16,573  INFO Config:550 setting context to [file:/home/opc/matsim-example-project/]
2024-12-18T05:12:16,575  INFO Config:550 setting context to [file:/home/opc/matsim-example-project/]
2024-12-18T05:12:16,576  INFO Config:550 setting context to [file:/home/opc/matsim-example-project/]
2024-12-18T05:12:16,577  INFO Config:550 setting context to [file:/home/opc/matsim-example-project/]
2024-12-18T05:12:16,579  INFO Config:550 setting context to [file:/home/opc/matsim-example-project/]
2024-12-18T05:12:16,580  INFO Config:550 setting context to [file:/home/opc/matsim-example-project/]
2024-12-18T05:12:16,581  INFO Config:550 setting context to [file:/home/opc/matsim-example-project/]
2024-12-18T05:12:16,582  INFO Config:550 setting context to [file:/home/opc/matsim-example-project/]
2024-12-18T05:12:16,583  INFO Config:550 setting context to [file:/home/opc/matsim-example-project/]
2024-12-18T05:12:16,584  INFO Config:550 setting context to [file:/home/opc/matsim-example-project/]
2024-12-18T05:12:16,585  INFO Config:550 setting context to [file:/home/opc/matsim-example-project/]
2024-12-18T05:12:16,586  INFO Config:550 setting context to [file:/home/opc/matsim-example-project/]
2024-12-18T05:12:16,592  INFO Config:550 setting context to [file:/home/opc/matsim-example-project/]
2024-12-18T05:12:16,594  INFO Config:550 setting context to [file:/home/opc/matsim-example-project/]
2024-12-18T05:12:16,595  INFO Config:550 setting context to [file:/home/opc/matsim-example-project/]
2024-12-18T05:12:16,596  INFO Config:550 setting context to [file:/home/opc/matsim-example-project/]
2024-12-18T05:12:16,597  INFO Config:550 setting context to [file:/home/opc/matsim-example-project/]
2024-12-18T05:12:16,602  INFO Config:550 setting context to [file:/home/opc/matsim-example-project/]
2024-12-18T05:12:16,603  INFO Config:550 setting context to [file:/home/opc/matsim-example-project/]
2024-12-18T05:12:16,604  INFO Config:550 setting context to [file:/home/opc/matsim-example-project/]
2024-12-18T05:12:16,605  INFO Config:550 setting context to [file:/home/opc/matsim-example-project/]
2024-12-18T05:12:16,605  INFO Config:550 setting context to [file:/home/opc/matsim-example-project/]
2024-12-18T05:12:16,606  INFO Config:550 setting context to [file:/home/opc/matsim-example-project/]
2024-12-18T05:12:16,607  INFO Config:550 setting context to [file:/home/opc/matsim-example-project/]
2024-12-18T05:12:16,610  INFO MatsimVehicleWriter:49 about to write vehicles to: scenarios/equil/output/run_20241218_051102/output_vehicles.xml.gz
2024-12-18T05:12:16,610  INFO VehicleWriterV2:64 about to write vehicles to: scenarios/equil/output/run_20241218_051102/output_vehicles.xml.gz
2024-12-18T05:12:17,552  INFO VehicleUtils:395 adding scenario element for allvehicles container
2024-12-18T05:12:17,553  INFO HouseholdsWriterV10:66 about to write  households to: scenarios/equil/output/run_20241218_051102/output_households.xml.gz
2024-12-18T05:12:17,553  INFO Counter:75 [HouseholdsWriter] wrote household # 0
2024-12-18T05:12:17,557  INFO CountsWriterV2:45 Write Counts to scenarios/equil/output/run_20241218_051102/output_counts.xml.gz
2024-12-18T05:12:17,597  INFO ControlerListenerManagerImpl:135 calling notifyShutdown on org.matsim.analysis.ScoreStatsControlerListener with priority 0.0
2024-12-18T05:12:17,597  INFO ControlerListenerManagerImpl:135 calling notifyShutdown on org.matsim.analysis.IterationTravelStatsControlerListener with priority 0.0
2024-12-18T05:12:17,598  INFO PersonWriter:36 Writing all Persons to personscsv
2024-12-18T05:12:20,778  INFO PersonWriter:54 ...done
2024-12-18T05:12:20,778  INFO ControlerListenerManagerImpl:135 calling notifyShutdown on org.matsim.analysis.LinkStatsControlerListener with priority 0.0
2024-12-18T05:12:20,867  INFO ControlerListenerManagerImpl:138 all ControlerShutdownListeners called.
2024-12-18T05:12:20,868  INFO MatsimRuntimeModifications:103 S H U T D O W N   ---   shutdown completed.
2024-12-18T05:12:20,868  INFO OutputDirectoryLogging:172 closing the logfile, i.e. messages sent to the logger after this message are not written to the logfile.
