2024-12-19T00:18:57,419  INFO Gbl:64 JVM: 17.0.13; Red Hat, Inc.; mixed mode, sharing; 64-bit
2024-12-19T00:18:57,419  INFO Gbl:68 OS: Linux; 5.15.0-301.163.5.2.el8uek.x86_64; amd64
2024-12-19T00:18:57,419  INFO Gbl:71 CPU cores: 8
2024-12-19T00:18:57,422  INFO Gbl:72 max. Memory: 16008.0MB (16785604608B)
2024-12-19T00:18:57,422  INFO Gbl:114 MATSim-Build: ree04702ba7fc026b6bdf5a6ea52a749cf0c790e1 (2024-04-13 15:48:32)
2024-12-19T00:18:57,422  INFO Gbl:76 Command: org.matsim.project.RunMatsim
2024-12-19T00:18:57,425  INFO MemoryObserver:42 used RAM: 788 MB  free: 1507 MB  total: 2296 MB
2024-12-19T00:18:57,426  INFO ControlerListenerManagerImpl:112 calling notifyStartup on org.matsim.core.controler.ControlerDefaultsModule$1 with priority 0.0
2024-12-19T00:18:57,513  INFO ControlerListenerManagerImpl:112 calling notifyStartup on org.matsim.guice.DependencyGraphControlerListener with priority 0.0
2024-12-19T00:18:57,601  INFO ControlerListenerManagerImpl:112 calling notifyStartup on org.matsim.counts.CountsControlerListener with priority 0.0
2024-12-19T00:18:57,602  INFO ControlerListenerManagerImpl:112 calling notifyStartup on org.matsim.analysis.ModeStatsControlerListener with priority 0.0
2024-12-19T00:18:57,602  INFO ControlerListenerManagerImpl:112 calling notifyStartup on org.matsim.analysis.ScoreStatsControlerListener with priority 0.0
2024-12-19T00:18:57,603  INFO ControlerListenerManagerImpl:115 all ControlerStartupListeners called.
2024-12-19T00:18:57,603  INFO ControlerUtils:79 config dump before iterations start
2024-12-19T00:18:57,616  INFO ControlerUtils:83 

<?xml version="1.0" encoding="UTF-8"?>
<!DOCTYPE config SYSTEM "http://www.matsim.org/files/dtd/config_v2.dtd">
<config>
	<module name="changeMode" >
		<!-- Defines whether car availability is considered be considered or not. An agent has no car only if it has no license, or never access to a car. Default: true -->
		<param name="ignoreCarAvailability" value="true" />
		<!-- Defines the mode switch behavior. Possible values [fromAllModesToSpecifiedModes, fromSpecifiedModesToSpecifiedModes] Default: fromSpecifiedModesToSpecifiedModes. -->
		<param name="modeSwitchBehavior" value="fromSpecifiedModesToSpecifiedModes" />
		<!-- Defines all the modes available, including chain-based modes, seperated by commas -->
		<param name="modes" value="car,pt" />
	</module>
	<module name="controller" >
		<!-- Defines what should be done with the ITERS directory when a simulation finished successfully -->
		<param name="cleanItersAtEnd" value="keep" />
		<!-- Compression algorithm to use when writing out data to files. Possible values: [none, gzip, lz4, zst] -->
		<param name="compressionType" value="gzip" />
		<!-- Sets the interval in which graphs are generated. Default is 1. If set to 0, no graphs are generated. The generation of graphs usually takes a small amount of time that does not have any weight in big simulations, but add a significant overhead in smaller runs or in test cases where the graphical output is not even requested. -->
		<param name="createGraphsInterval" value="1" />
		<!-- Defines when the scoring functions for the population are created. Default=IterationStarts. Possible values: [IterationStarts, BeforeMobsim] -->
		<param name="createScoringFunctionType" value="IterationStarts" />
		<!-- true if at the end of a run, plans, network, config etc should be dumped to a file -->
		<param name="dumpDataAtEnd" value="true" />
		<!-- Default=false. If enabled, the router takes travel times needed for turning moves into account. Can only be used with Dijkstra routing. Cannot be used when TravelTimeCalculator.separateModes is enabled. -->
		<param name="enableLinkToLinkRouting" value="false" />
		<!-- Default=xml; Specifies the file format for writing events. Currently supported: [xml, pb, json]
		Multiple values can be specified separated by commas (','). -->
		<param name="eventsFileFormat" value="xml" />
		<!-- Default=0. First Iteration of a simulation. -->
		<param name="firstIteration" value="0" />
		<!-- Default=1000. Last Iteration of a simulation. -->
		<param name="lastIteration" value="1" />
		<!-- Defines the interval for printing memory usage to the log in [seconds]. Must be positive. Defaults to 60. -->
		<param name="memoryObserverInterval" value="60" />
		<!-- Defines which mobility simulation will be used. Currently supported: [qsim, JDEQSim, hermes]
		Depending on the chosen mobsim, you'll have to add additional config modules to configure the corresponding mobsim.
		For 'qsim', add a module 'qsim' to the config. -->
		<param name="mobsim" value="qsim" />
		<param name="outputDirectory" value="scenarios/equil/output/run_20241219_001848" />
		<!-- Possible values: failIfDirectoryExists,overwriteExistingFiles,deleteDirectoryIfExists -->
		<param name="overwriteFiles" value="deleteDirectoryIfExists" />
		<!-- The type of routing (least cost path) algorithm used, may have the values: [Dijkstra, AStarLandmarks, SpeedyALT] -->
		<param name="routingAlgorithmType" value="Dijkstra" />
		<!-- An identifier for the current run which is used as prefix for output files and mentioned in output xml files etc. -->
		<param name="runId" value="null" />
		<!-- Comma-separated list of visualizer output file formats. `transims' and `otfvis'. -->
		<param name="snapshotFormat" value="" />
		<!-- iterationNumber % writeEventsInterval == 0 defines in which iterations events are written to a file. `0' disables events writing completely. -->
		<param name="writeEventsInterval" value="50" />
		<!-- iterationNumber % writePlansInterval == 0 defines (hopefully) in which iterations plans are written to a file. `0' disables plans writing completely.  Some plans in early iterations are always written -->
		<param name="writePlansInterval" value="50" />
		<!-- iterationNumber % writeSnapshotsInterval == 0 defines in which iterations snapshots are written to a file. `0' disables snapshots writing completely -->
		<param name="writeSnapshotsInterval" value="1" />
		<!-- iterationNumber % writeEventsInterval == 0 defines in which iterations trips CSV are written to a file. `0' disables trips writing completely. -->
		<param name="writeTripsInterval" value="50" />
	</module>
	<module name="counts" >
		<!-- Transport modes that will be respected for the counts comparison. 'car' is default, which includes also bussed from the pt simulation module. Use this parameter in combination with 'filterModes' = true! -->
		<param name="analyzedModes" value="car" />
		<!-- Specifies over how many iterations the link volumes should be averaged that are used for the counts comparison. Use 1 or 0 to only use the link volumes of a single iteration. This values cannot be larger than the value specified for writeCountsInterval -->
		<param name="averageCountsOverIterations" value="5" />
		<!-- factor by which to re-scale the simulated values.  necessary when simulation runs with something different from 100%.  needs to be adapted manually -->
		<param name="countsScaleFactor" value="1.0" />
		<!-- distance to distanceFilterCenterNode to include counting stations. The unit of distance is the Euclidean distance implied by the coordinate system -->
		<param name="distanceFilter" value="null" />
		<!-- node id for center node of distance filter -->
		<param name="distanceFilterCenterNode" value="null" />
		<!-- If true, link counts from legs performed on modes not included in the 'analyzedModes' parameter are ignored. -->
		<param name="filterModes" value="false" />
		<!-- The Coordinates Reference System in which the coordinates are expressed in the input file. At import, the coordinates will be converted to the coordinate system defined in "global", and willbe converted back at export. If not specified, no conversion happens. -->
		<param name="inputCRS" value="null" />
		<!-- input file name to counts package -->
		<param name="inputCountsFile" value="null" />
		<!-- possible values: `html', `txt', `all' -->
		<param name="outputformat" value="txt" />
		<!-- Specifies how often the counts comparison should be calculated and written. -->
		<param name="writeCountsInterval" value="10" />
	</module>
	<module name="eventsManager" >
		<!-- Estimated number of events during mobsim run. An optional optimization hint for the framework. -->
		<param name="estimatedNumberOfEvents" value="null" />
		<!-- Size of the events Queue. Increase for very large scenarios -->
		<param name="eventsQueueSize" value="131072" />
		<!-- Number of threads for parallel events handler. _null_ means the framework decides by itself. 0 is currently not possible. -->
		<param name="numberOfThreads" value="null" />
		<!-- If enabled, each event handler is assigned to its own thread. Note that enabling this feature disabled the numberOfThreads option! This feature is still experimental! -->
		<param name="oneThreadPerHandler" value="false" />
		<!-- If enabled, it is ensured that all events that are created during a time step of the mobility simulation are processed before the next time step is simulated. E.g. neccessary when within-day replanning is used. -->
		<param name="synchronizeOnSimSteps" value="true" />
	</module>
	<module name="facilities" >
		<!-- This defines how facilities should be created. Possible values: none fromFile setInScenario onePerActivityLinkInPlansFile onePerActivityLinkInPlansFileExceptWhenCoordinatesAreGiven onePerActivityLocationInPlansFile  -->
		<param name="facilitiesSource" value="none" />
		<!-- A prefix to be used for auto-generated IDs. -->
		<param name="idPrefix" value="f_auto_" />
		<!-- The Coordinates Reference System in which the coordinates are expressed in the input file. At import, the coordinates will be converted to the coordinate system defined in "global", and willbe converted back at export. If not specified, no conversion happens. -->
		<param name="inputCRS" value="null" />
		<param name="inputFacilitiesFile" value="null" />
		<param name="inputFacilityAttributesFile" value="null" />
		<param name="insistingOnUsingDeprecatedFacilitiesAttributeFile" value="false" />
	</module>
	<module name="global" >
		<param name="coordinateSystem" value="EPSG:32610" />
		<param name="defaultDelimiter" value=";" />
		<param name="insistingOnDeprecatedConfigVersion" value="true" />
		<!-- "global" number of threads.  This number is used, e.g., for replanning, but NOT in QSim.  This can typically be set to as many cores as you have available, or possibly even slightly more. -->
		<param name="numberOfThreads" value="2" />
		<param name="randomSeed" value="4711" />
	</module>
	<module name="hermes" >
		<!-- Simulation End Time -->
		<param name="endTime" value="30:00:00" />
		<param name="flowCapacityFactor" value="1.0" />
		<param name="mainMode" value="car" />
		<param name="storageCapacityFactor" value="1.0" />
		<!-- time in seconds.  Time after which the frontmost vehicle on a link is called `stuck' if it does not move. Set to Integer.MAX_VALUE to disable this behavior -->
		<param name="stuckTime" value="10" />
		<!-- treats PT as deterministic. PT vehicles will run with a steady speed. Should be used with separate network layers for PT and other network modes. -->
		<param name="useDeterministicPt" value="false" />
	</module>
	<module name="households" >
		<param name="inputFile" value="null" />
		<param name="inputHouseholdAttributesFile" value="null" />
		<param name="insistingOnUsingDeprecatedHouseholdsAttributeFile" value="false" />
	</module>
	<module name="jdeqsim" >
		<param name="carSize" value="7.5" />
		<param name="endTime" value="undefined" />
		<param name="flowCapacityFactor" value="1.0" />
		<param name="gapTravelSpeed" value="15.0" />
		<param name="minimumInFlowCapacity" value="1800.0" />
		<param name="squeezeTime" value="1800.0" />
		<param name="storageCapacityFactor" value="1.0" />
	</module>
	<module name="linkStats" >
		<!-- Specifies over how many iterations the link volumes should be averaged that are used for the link statistics. Use 1 or 0 to only use the link volumes of a single iteration. This values cannot be larger than the value specified for writeLinkStatsInterval -->
		<param name="averageLinkStatsOverIterations" value="5" />
		<!-- Specifies how often the link stats should be calculated and written. Use 0 to disable the generation of link stats. -->
		<param name="writeLinkStatsInterval" value="50" />
	</module>
	<module name="network" >
		<!-- The Coordinates Reference System in which the coordinates are expressed in the input file. At import, the coordinates will be converted to the coordinate system defined in "global", and willbe converted back at export. If not specified, no conversion happens. -->
		<param name="inputCRS" value="null" />
		<param name="inputChangeEventsFile" value="null" />
		<param name="inputNetworkFile" value="output/sf_network.xml.gz" />
		<param name="laneDefinitionsFile" value="null" />
		<param name="timeVariantNetwork" value="false" />
	</module>
	<module name="planInheritance" >
		<!-- Specifies whether or not PlanInheritance Information should be tracked. -->
		<param name="enabled" value="false" />
	</module>
	<module name="plans" >
		<!-- String: minOfDurationAndEndTime tryEndTimeThenDuration endTimeOnly. Anything besides minOfDurationAndEndTime will internally use a different (simpler) version of the TimeAllocationMutator. -->
		<param name="activityDurationInterpretation" value="tryEndTimeThenDuration" />
		<!-- Possible values: reject,useMainModeIdentifier -->
		<param name="handlingOfPlansWithoutRoutingMode" value="reject" />
		<!-- The Coordinates Reference System in which the coordinates are expressed in the input file. At import, the coordinates will be converted to the coordinate system defined in "global", and willbe converted back at export. If not specified, no conversion happens. -->
		<param name="inputCRS" value="null" />
		<param name="inputPersonAttributesFile" value="null" />
		<param name="inputPlansFile" value="output/synthetic_population.xml" />
		<param name="insistingOnUsingDeprecatedPersonAttributeFile" value="false" />
		<!-- Defines how routes are stored in memory. Currently supported: LinkNetworkRoute, MediumCompressedNetworkRoute, HeavyCompressedNetworkRoute. -->
		<param name="networkRouteType" value="LinkNetworkRoute" />
		<!-- (not tested) will remove plan attributes that are presumably not used, such as activityStartTime. default=false. Use with Caution! -->
		<param name="removingUnnecessaryPlanAttributes" value="false" />
		<!-- Defines how departure times are interpreted in rerouting applications. If set to 'ignoreDelays', the departure time of a trip when routing along a plan will always be the nominal (plan-based) activity end time. If set to 'shiftActivityEndTimes', routing along a plan will accumulate travel times and shift activity end times if necessary -->
		<param name="tripDurationHandling" value="ignoreDelays" />
	</module>
	<module name="qsim" >
		<param name="endTime" value="30:00:00" />
		<!-- If set to withLinkAttributes snapshots will only be generated for links which include generateSnapshotForLink as attribute key. Default is no filtering. -->
		<param name="filterSnapshots" value="no" />
		<param name="flowCapacityFactor" value="0.8" />
		<!-- decides if waiting vehicles enter the network after or before the already driving vehicles were moved. Default: false -->
		<param name="insertingWaitingVehiclesBeforeDrivingVehicles" value="true" />
		<!-- If link dynamics is set as SeepageQ, set to false if all seep modes should perform seepage. Default is true (better option). -->
		<param name="isRestrictingSeepage" value="true" />
		<!-- If link dynamics is set as SeepageQ, set to true if seep mode do not consumes any space on the link. Default is false. -->
		<param name="isSeepModeStorageFree" value="false" />
		<!-- default: FIFO; options: FIFO PassingQ SeepageQ -->
		<param name="linkDynamics" value="FIFO" />
		<!-- The (initial) width of the links of the network. Use positive floating point values. This is used only for visualisation. -->
		<param name="linkWidth" value="30.0" />
		<!-- [comma-separated list] Defines which modes are congested modes. Technically, these are the modes that the departure handler of the netsimengine handles.  Effective cell size, effective lane width, flow capacity factor, and storage capacity factor need to be set with diligence.  Need to be vehicular modes to make sense. -->
		<param name="mainMode" value="car" />
		<!-- Shortens a link in the visualization, i.e. its start and end point are moved into towards the center. Does not affect traffic flow.  -->
		<param name="nodeOffset" value="0.0" />
		<!-- Number of threads used for the QSim.  Note that this setting is independent from the "global" threads setting.  In contrast to earlier versions, the non-parallel special version is no longer there. -->
		<param name="numberOfThreads" value="1" />
		<!-- Boolean. `true': stuck vehicles are removed, aborting the plan; `false': stuck vehicles are forced into the next link. `false' is probably the better choice. -->
		<param name="removeStuckVehicles" value="false" />
		<!-- If link dynamics is set as SeepageQ, set a seep mode. Default is bike. -->
		<param name="seepMode" value="bike" />
		<!-- Possible values: minOfEndtimeAndMobsimFinished,onlyUseEndtime -->
		<param name="simEndtimeInterpretation" value="null" />
		<!-- Options: maxOfStarttimeAndEarliestActivityEnd onlyUseStarttime  -->
		<param name="simStarttimeInterpretation" value="maxOfStarttimeAndEarliestActivityEnd" />
		<!-- snapshotStyle. One of: equiDist queue withHoles withHolesAndShowHoles kinematicWaves  -->
		<param name="snapshotStyle" value="queue" />
		<param name="snapshotperiod" value="00:30:00" />
		<param name="startTime" value="00:00:00" />
		<param name="storageCapacityFactor" value="1.0" />
		<!-- time in seconds.  Time after which the frontmost vehicle on a link is called `stuck' if it does not move. -->
		<param name="stuckTime" value="10.0" />
		<param name="timeStepSize" value="00:00:01" />
		<!-- options: queue withHoles kinematicWaves  -->
		<param name="trafficDynamics" value="queue" />
		<!-- Set this parameter to true if lanes should be used, false if not. -->
		<param name="useLanes" value="true" />
		<!-- If a route does not reference a vehicle, agents will use the vehicle with the same id as their own. -->
		<param name="usePersonIdForMissingVehicleId" value="false" />
		<!-- If false, the qsim accumulates fractional flows up to one flow unit in every time step.  If true, flows are updated only if an agent wants to enter the link or an agent is added to buffer. Default is true. -->
		<param name="usingFastCapacityUpdate" value="true" />
		<!-- Defines what happens if an agent wants to depart, but the specified vehicle is not available. One of: teleport wait exception  -->
		<param name="vehicleBehavior" value="teleport" />
		<!-- If vehicles should all be the same default vehicle, or come from the vehicles file, or something else.  Possible values:  defaultVehicle modeVehicleTypesFromVehiclesData fromVehiclesData -->
		<param name="vehiclesSource" value="defaultVehicle" />
	</module>
	<module name="replanning" >
		<!-- the external executable will be called with a config file as argument.  This is the pathname to a possible skeleton config, to which additional information will be added.  Can be null. -->
		<param name="ExternalExeConfigTemplate" value="null" />
		<!-- time out value (in seconds) after which matsim will consider the external strategy as failed -->
		<param name="ExternalExeTimeOut" value="3600" />
		<!-- root directory for temporary files generated by the external executable. Provided as a service; I don't think this is used by MATSim. -->
		<param name="ExternalExeTmpFileRootDir" value="null" />
		<!-- fraction of iterations where innovative strategies are switched off.  Something like 0.8 should be good.  E.g. if you run from iteration 400 to iteration 500, innovation is switched off at iteration 480 -->
		<param name="fractionOfIterationsToDisableInnovation" value="Infinity" />
		<!-- maximum number of plans per agent.  ``0'' means ``infinity''.  Currently (2010), ``5'' is a good number -->
		<param name="maxAgentPlanMemorySize" value="5" />
		<!-- strategyName of PlanSelector for plans removal.  Possible defaults: WorstPlanSelector SelectRandom SelectExpBetaForRemoval ChangeExpBetaForRemoval PathSizeLogitSelectorForRemoval . The current default, WorstPlanSelector is not a good choice from a discrete choice theoretical perspective. Alternatives, however, have not been systematically tested. kai, feb'12 -->
		<param name="planSelectorForRemoval" value="WorstPlanForRemovalSelectorWithConflicts" />
		<parameterset type="strategysettings" >
			<!-- iteration after which strategy will be disabled.  most useful for ``innovative'' strategies (new routes, new times, ...). Normally, better use fractionOfIterationsToDisableInnovation -->
			<param name="disableAfterIteration" value="-1" />
			<!-- path to external executable (if applicable) -->
			<param name="executionPath" value="null" />
			<!-- strategyName of strategy.  Possible default names: SelectRandom BestScore KeepLastSelected ChangeExpBeta SelectExpBeta SelectPathSizeLogit      (selectors), ReRouteTimeAllocationMutatorTimeAllocationMutator_ReRouteChangeSingleTripModeChangeTripModeSubtourModeChoice (innovative strategies). -->
			<param name="strategyName" value="BestScore" />
			<!-- subpopulation to which the strategy applies. "null" refers to the default population, that is, the set of persons for which no explicit subpopulation is defined (ie no subpopulation attribute) -->
			<param name="subpopulation" value="null" />
			<!-- weight of a strategy: for each agent, a strategy will be selected with a probability proportional to its weight -->
			<param name="weight" value="0.9" />
		</parameterset>
		<parameterset type="strategysettings" >
			<param name="disableAfterIteration" value="-1" />
			<param name="executionPath" value="null" />
			<param name="strategyName" value="ReRoute" />
			<param name="subpopulation" value="null" />
			<param name="weight" value="0.1" />
		</parameterset>
	</module>
	<module name="replanningAnnealer" >
		<!-- Activate the scaling of replanning modules using an annealing approach rather than fixed rates. -->
		<param name="activateAnnealingModule" value="false" />
	</module>
	<module name="routing" >
		<!-- Defines how access and egress to main mode is simulated. Either of [none, accessEgressModeToLink, walkConstantTimeToLink, accessEgressModeToLinkPlusTimeConstant], Current default=none which means no access or egress trips are simulated. -->
		<param name="accessEgressType" value="none" />
		<!-- Some typical teleportation routing params are set by default, such as for walk and bike.  Setting this switch to "true" will clear them.  Note that this will also clear settings for helper modes such as for non_network_walk -->
		<param name="clearDefaultTeleportedModeParams" value="false" />
		<!-- All the modes for which the router is supposed to generate network routes (like car) -->
		<param name="networkModes" value="car" />
		<!-- strength of the randomness for the utility of money in routing under toll.  Leads to Pareto-optimal route with randomly drawn money-vs-other-attributes tradeoff. Technically the width parameter of a log-normal distribution. 3.0 seems to be a good value.  -->
		<param name="routingRandomness" value="3.0" />
		<parameterset type="teleportedModeParameters" >
			<param name="beelineDistanceFactor" value="1.3" />
			<param name="mode" value="bike" />
			<!-- Free-speed factor for a teleported mode. Travel time = teleportedModeFreespeedFactor * <freespeed car travel time>. Insert a line like this for every such mode. Please do not set teleportedModeFreespeedFactor as well as teleportedModeSpeed for the same mode, but if you do, +teleportedModeFreespeedFactor wins over teleportedModeSpeed. -->
			<param name="teleportedModeFreespeedFactor" value="null" />
			<!-- Speed for a teleported mode. Travel time = (<beeline distance> * beelineDistanceFactor) / teleportedModeSpeed. Insert a line like this for every such mode. -->
			<param name="teleportedModeSpeed" value="4.166666666666667" />
		</parameterset>
		<parameterset type="teleportedModeParameters" >
			<param name="beelineDistanceFactor" value="1.3" />
			<param name="mode" value="walk" />
			<param name="teleportedModeFreespeedFactor" value="null" />
			<param name="teleportedModeSpeed" value="0.8333333333333333" />
		</parameterset>
		<parameterset type="teleportedModeParameters" >
			<param name="beelineDistanceFactor" value="1.3" />
			<param name="mode" value="non_network_walk" />
			<param name="teleportedModeFreespeedFactor" value="null" />
			<param name="teleportedModeSpeed" value="0.8333333333333333" />
		</parameterset>
		<parameterset type="teleportedModeParameters" >
			<param name="beelineDistanceFactor" value="1.3" />
			<param name="mode" value="ride" />
			<param name="teleportedModeFreespeedFactor" value="1.0" />
			<param name="teleportedModeSpeed" value="null" />
		</parameterset>
		<parameterset type="teleportedModeParameters" >
			<param name="beelineDistanceFactor" value="1.3" />
			<param name="mode" value="pt" />
			<param name="teleportedModeFreespeedFactor" value="2.0" />
			<param name="teleportedModeSpeed" value="null" />
		</parameterset>
	</module>
	<module name="scoring" >
		<!-- logit model scale parameter. default: 1.  Has name and default value for historical reasons (see Bryan Raney's phd thesis). -->
		<param name="brainExpBeta" value="2.0" />
		<!-- fraction of iterations at which MSA score averaging is started. The matsim theory department suggests to use this together with switching off choice set innovation (where a similar switch exists), but it has not been tested yet. -->
		<param name="fractionOfIterationsToStartScoreMSA" value="null" />
		<!-- new_score = (1-learningRate)*old_score + learningRate * score_from_mobsim.  learning rates close to zero emulate score averaging, but slow down initial convergence -->
		<param name="learningRate" value="1.0" />
		<param name="pathSizeLogitBeta" value="1.0" />
		<!-- There used to be a plateau between duration=0 and duration=zeroUtilityDuration. This caused durations to evolve to zero once they were below zeroUtilityDuration, causing problems.  Only use this switch if you need to be backwards compatible with some old results.  (changed nov'13) -->
		<param name="usingOldScoringBelowZeroUtilityDuration" value="false" />
		<!-- write a plans file in each iteration directory which contains what each agent actually did, and the score it received. -->
		<param name="writeExperiencedPlans" value="false" />
		<parameterset type="scoringParameters" >
			<param name="earlyDeparture" value="-0.0" />
			<param name="lateArrival" value="-18.0" />
			<param name="marginalUtilityOfMoney" value="0.01" />
			<param name="performing" value="6.0" />
			<param name="subpopulation" value="null" />
			<param name="utilityOfLineSwitch" value="-1.0" />
			<param name="waiting" value="-0.0" />
			<param name="waitingPt" value="-4.0" />
			<parameterset type="activityParams" >
				<param name="activityType" value="dummy" />
				<param name="closingTime" value="undefined" />
				<param name="earliestEndTime" value="undefined" />
				<param name="latestStartTime" value="undefined" />
				<param name="minimalDuration" value="undefined" />
				<param name="openingTime" value="undefined" />
				<param name="priority" value="1.0" />
				<param name="scoringThisActivityAtAll" value="true" />
				<!-- typical duration of activity.  needs to be defined and non-zero.  in sec. -->
				<param name="typicalDuration" value="02:00:00" />
				<!-- method to compute score at typical duration.  Options: | uniform | relative | Use uniform for backwards compatibility (all activities same score; higher proba to drop long acts). -->
				<param name="typicalDurationScoreComputation" value="relative" />
			</parameterset>
			<parameterset type="activityParams" >
				<param name="activityType" value="car interaction" />
				<param name="closingTime" value="undefined" />
				<param name="earliestEndTime" value="undefined" />
				<param name="latestStartTime" value="undefined" />
				<param name="minimalDuration" value="undefined" />
				<param name="openingTime" value="undefined" />
				<param name="priority" value="1.0" />
				<param name="scoringThisActivityAtAll" value="false" />
				<param name="typicalDuration" value="undefined" />
				<param name="typicalDurationScoreComputation" value="relative" />
			</parameterset>
			<parameterset type="activityParams" >
				<param name="activityType" value="pt interaction" />
				<param name="closingTime" value="undefined" />
				<param name="earliestEndTime" value="undefined" />
				<param name="latestStartTime" value="undefined" />
				<param name="minimalDuration" value="undefined" />
				<param name="openingTime" value="undefined" />
				<param name="priority" value="1.0" />
				<param name="scoringThisActivityAtAll" value="false" />
				<param name="typicalDuration" value="undefined" />
				<param name="typicalDurationScoreComputation" value="relative" />
			</parameterset>
			<parameterset type="activityParams" >
				<param name="activityType" value="bike interaction" />
				<param name="closingTime" value="undefined" />
				<param name="earliestEndTime" value="undefined" />
				<param name="latestStartTime" value="undefined" />
				<param name="minimalDuration" value="undefined" />
				<param name="openingTime" value="undefined" />
				<param name="priority" value="1.0" />
				<param name="scoringThisActivityAtAll" value="false" />
				<param name="typicalDuration" value="undefined" />
				<param name="typicalDurationScoreComputation" value="relative" />
			</parameterset>
			<parameterset type="activityParams" >
				<param name="activityType" value="drt interaction" />
				<param name="closingTime" value="undefined" />
				<param name="earliestEndTime" value="undefined" />
				<param name="latestStartTime" value="undefined" />
				<param name="minimalDuration" value="undefined" />
				<param name="openingTime" value="undefined" />
				<param name="priority" value="1.0" />
				<param name="scoringThisActivityAtAll" value="false" />
				<param name="typicalDuration" value="undefined" />
				<param name="typicalDurationScoreComputation" value="relative" />
			</parameterset>
			<parameterset type="activityParams" >
				<param name="activityType" value="taxi interaction" />
				<param name="closingTime" value="undefined" />
				<param name="earliestEndTime" value="undefined" />
				<param name="latestStartTime" value="undefined" />
				<param name="minimalDuration" value="undefined" />
				<param name="openingTime" value="undefined" />
				<param name="priority" value="1.0" />
				<param name="scoringThisActivityAtAll" value="false" />
				<param name="typicalDuration" value="undefined" />
				<param name="typicalDurationScoreComputation" value="relative" />
			</parameterset>
			<parameterset type="activityParams" >
				<param name="activityType" value="other interaction" />
				<param name="closingTime" value="undefined" />
				<param name="earliestEndTime" value="undefined" />
				<param name="latestStartTime" value="undefined" />
				<param name="minimalDuration" value="undefined" />
				<param name="openingTime" value="undefined" />
				<param name="priority" value="1.0" />
				<param name="scoringThisActivityAtAll" value="false" />
				<param name="typicalDuration" value="undefined" />
				<param name="typicalDurationScoreComputation" value="relative" />
			</parameterset>
			<parameterset type="activityParams" >
				<param name="activityType" value="walk interaction" />
				<param name="closingTime" value="undefined" />
				<param name="earliestEndTime" value="undefined" />
				<param name="latestStartTime" value="undefined" />
				<param name="minimalDuration" value="undefined" />
				<param name="openingTime" value="undefined" />
				<param name="priority" value="1.0" />
				<param name="scoringThisActivityAtAll" value="false" />
				<param name="typicalDuration" value="undefined" />
				<param name="typicalDurationScoreComputation" value="relative" />
			</parameterset>
			<parameterset type="activityParams" >
				<param name="activityType" value="home" />
				<param name="closingTime" value="undefined" />
				<param name="earliestEndTime" value="undefined" />
				<param name="latestStartTime" value="undefined" />
				<param name="minimalDuration" value="undefined" />
				<param name="openingTime" value="undefined" />
				<param name="priority" value="1.0" />
				<param name="scoringThisActivityAtAll" value="true" />
				<param name="typicalDuration" value="12:00:00" />
				<param name="typicalDurationScoreComputation" value="relative" />
			</parameterset>
			<parameterset type="activityParams" >
				<param name="activityType" value="work" />
				<param name="closingTime" value="18:00:00" />
				<param name="earliestEndTime" value="undefined" />
				<param name="latestStartTime" value="undefined" />
				<param name="minimalDuration" value="undefined" />
				<param name="openingTime" value="08:00:00" />
				<param name="priority" value="1.0" />
				<param name="scoringThisActivityAtAll" value="true" />
				<param name="typicalDuration" value="06:00:00" />
				<param name="typicalDurationScoreComputation" value="relative" />
			</parameterset>
			<parameterset type="activityParams" >
				<param name="activityType" value="ride interaction" />
				<param name="closingTime" value="undefined" />
				<param name="earliestEndTime" value="undefined" />
				<param name="latestStartTime" value="undefined" />
				<param name="minimalDuration" value="undefined" />
				<param name="openingTime" value="undefined" />
				<param name="priority" value="1.0" />
				<param name="scoringThisActivityAtAll" value="false" />
				<param name="typicalDuration" value="undefined" />
				<param name="typicalDurationScoreComputation" value="relative" />
			</parameterset>
			<parameterset type="modeParams" >
				<!-- [utils] alternative-specific constant.  Normally per trip, but that is probably buggy for multi-leg trips. -->
				<param name="constant" value="0.0" />
				<!-- [unit_of_money/day] Fixed cost of mode, per day. -->
				<param name="dailyMonetaryConstant" value="1.0" />
				<!-- [utils] daily utility constant. default=0 to be backwards compatible -->
				<param name="dailyUtilityConstant" value="0.0" />
				<!-- [utils/m] utility of traveling (e.g. walking or driving) per m, normally negative.  this is on top of the time (dis)utility. -->
				<param name="marginalUtilityOfDistance_util_m" value="-0.02" />
				<!-- [utils/hr] additional marginal utility of traveling.  normally negative.  this comes on top of the opportunity cost of time -->
				<param name="marginalUtilityOfTraveling_util_hr" value="-6.0" />
				<param name="mode" value="car" />
				<!-- [unit_of_money/m] conversion of distance into money. Normally negative. -->
				<param name="monetaryDistanceRate" value="-1.0E-4" />
			</parameterset>
			<parameterset type="modeParams" >
				<param name="constant" value="0.0" />
				<param name="dailyMonetaryConstant" value="0.0" />
				<param name="dailyUtilityConstant" value="0.0" />
				<param name="marginalUtilityOfDistance_util_m" value="-0.05" />
				<param name="marginalUtilityOfTraveling_util_hr" value="-6.0" />
				<param name="mode" value="walk" />
				<param name="monetaryDistanceRate" value="-0.005" />
			</parameterset>
			<parameterset type="modeParams" >
				<param name="constant" value="0.0" />
				<param name="dailyMonetaryConstant" value="0.0" />
				<param name="dailyUtilityConstant" value="0.0" />
				<param name="marginalUtilityOfDistance_util_m" value="-0.025" />
				<param name="marginalUtilityOfTraveling_util_hr" value="-3.0" />
				<param name="mode" value="bike" />
				<param name="monetaryDistanceRate" value="0.0015" />
			</parameterset>
			<parameterset type="modeParams" >
				<param name="constant" value="0.0" />
				<param name="dailyMonetaryConstant" value="2.0" />
				<param name="dailyUtilityConstant" value="0.0" />
				<param name="marginalUtilityOfDistance_util_m" value="-0.0025" />
				<param name="marginalUtilityOfTraveling_util_hr" value="-6.0" />
				<param name="mode" value="ride" />
				<param name="monetaryDistanceRate" value="-1.0E-4" />
			</parameterset>
			<parameterset type="modeParams" >
				<param name="constant" value="0.0" />
				<param name="dailyMonetaryConstant" value="0.0" />
				<param name="dailyUtilityConstant" value="0.0" />
				<param name="marginalUtilityOfDistance_util_m" value="-0.0025" />
				<param name="marginalUtilityOfTraveling_util_hr" value="-4.0" />
				<param name="mode" value="pt" />
				<param name="monetaryDistanceRate" value="-1.0E-4" />
			</parameterset>
			<parameterset type="modeParams" >
				<param name="constant" value="0.0" />
				<param name="dailyMonetaryConstant" value="1.0" />
				<param name="dailyUtilityConstant" value="0.0" />
				<param name="marginalUtilityOfDistance_util_m" value="-0.02" />
				<param name="marginalUtilityOfTraveling_util_hr" value="-2.0" />
				<param name="mode" value="other" />
				<param name="monetaryDistanceRate" value="-1.0E-4" />
			</parameterset>
		</parameterset>
	</module>
	<module name="subtourModeChoice" >
		<!-- Only for backwards compatibility.  Defines if only trips from modes list should change mode, or all trips.  Options: fromAllModesToSpecifiedModes fromSpecifiedModesToSpecifiedModes betweenAllAndFewerConstraints  -->
		<param name="behavior" value="fromSpecifiedModesToSpecifiedModes" />
		<!-- Defines the chain-based modes, seperated by commas -->
		<param name="chainBasedModes" value="car,bike" />
		<!-- Defines whether car availability must be considered or not. A agent has no car only if it has no license, or never access to a car -->
		<param name="considerCarAvailability" value="false" />
		<!-- If greater than 0, subtours will also consider coordinates to be at the same location when smaller than set distance. -->
		<param name="coordDistance" value="0.0" />
		<!-- Defines all the modes available, including chain-based modes, seperated by commas -->
		<param name="modes" value="car,pt,bike,walk" />
		<!-- Defines the probability of changing a single trip for a unchained mode instead of subtour. -->
		<param name="probaForRandomSingleTripMode" value="0.0" />
	</module>
	<module name="timeAllocationMutator" >
		<!-- Latest Activity End Time. Default = 24:00:00 -->
		<param name="latestActivityEndTime" value="86400.0" />
		<!-- Mutates times only around the initially defined end times. -->
		<param name="mutateAroundInitialEndTimeOnly" value="false" />
		<!-- Default:true; Defines whether time mutation changes an activity's duration. -->
		<param name="mutationAffectsDuration" value="true" />
		<!-- Default:1800.0; Defines how many seconds a time mutation can maximally shift a time. -->
		<param name="mutationRange" value="1800.0" />
		<!-- Mutation Range Step, default = 1 second -->
		<param name="mutationRangeStep" value="1.0" />
	</module>
	<module name="transit" >
		<!-- The Coordinates Reference System in which the coordinates are expressed in the input file. At import, the coordinates will be converted to the coordinate system defined in "global", and willbe converted back at export. If not specified, no conversion happens. -->
		<param name="inputScheduleCRS" value="null" />
		<param name="insistingOnUsingDeprecatedAttributeFiles" value="false" />
		<!-- The type of transit routing algorithm used, may have the values: [DijkstraBased, SwissRailRaptor] -->
		<param name="routingAlgorithmType" value="SwissRailRaptor" />
		<!-- Optional input file containing additional attributes for transit lines, stored as ObjectAttributes. -->
		<param name="transitLinesAttributesFile" value="null" />
		<!-- Comma-separated list of transportation modes that are handled as transit. Defaults to 'pt'. -->
		<param name="transitModes" value="pt" />
		<!-- Input file containing the transit schedule to be simulated. -->
		<param name="transitScheduleFile" value="null" />
		<!-- Optional input file containing additional attributes for transit stop facilities, stored as ObjectAttributes. -->
		<param name="transitStopsAttributesFile" value="null" />
		<!-- Set this parameter to true if transit should be simulated, false if not. -->
		<param name="useTransit" value="false" />
		<param name="usingTransitInMobsim" value="true" />
		<!-- Input file containing the vehicles used by the departures in the transit schedule. -->
		<param name="vehiclesFile" value="null" />
	</module>
	<module name="transitRouter" >
		<!-- additional time the router allocates when a line switch happens. Can be interpreted as a 'safety' time that agents need to safely transfer from one line to another -->
		<param name="additionalTransferTime" value="0.0" />
		<!-- Factor with which direct walk generalized cost is multiplied before it is compared to the pt generalized cost.  Set to a very high value to reduce direct walk results. -->
		<param name="directWalkFactor" value="1.0" />
		<!-- step size to increase searchRadius if no stops are found -->
		<param name="extensionRadius" value="200.0" />
		<!-- maximum beeline distance between stops that agents could transfer to by walking -->
		<param name="maxBeelineWalkConnectionDistance" value="100.0" />
		<!-- the radius in which stop locations are searched, given a start or target coordinate -->
		<param name="searchRadius" value="1000.0" />
	</module>
	<module name="travelTimeCalculator" >
		<!-- (only for backwards compatibility; only used if separateModes==false && + filterModes==true)  Transport modes that will be respected by the travel time collector. 'car' is default which includes also buses from the pt simulation module. -->
		<param name="analyzedModes" value="car" />
		<param name="calculateLinkToLinkTravelTimes" value="false" />
		<param name="calculateLinkTravelTimes" value="true" />
		<!-- (only for backwards compatiblity; only used if separateModes==false)  Only modes included in analyzedModes are included. -->
		<param name="filterModes" value="false" />
		<!-- The lenght (in sec) of the time period that is splited into time bins; an additional time bin is created to aggregate all travel times collected after maxTime -->
		<param name="maxTime" value="108000" />
		<!-- (only for backwards compatibility) If false, link travel times are measured and aggregated over all vehicles using the link. -->
		<param name="separateModes" value="true" />
		<!-- How to deal with congested time bins that have no link entry events. `optimistic' assumes free speed (too optimistic); 'experimental_LastMile' is experimental and probably too pessimistic. -->
		<param name="travelTimeAggregator" value="optimistic" />
		<!-- The size of the time bin (in sec) into which the link travel times are aggregated for the router -->
		<param name="travelTimeBinSize" value="900.0" />
		<!-- How to deal with link entry times at different positions during the time bin. Currently supported: average, linearinterpolation -->
		<param name="travelTimeGetter" value="average" />
	</module>
	<module name="vehicles" >
		<param name="vehiclesFile" value="null" />
	</module>
	<module name="vspExperimental" >
		<!-- (do not use except of you have to) There was a problem with pt interaction scoring.  Some people solved it by overwriting the parameters of the pt interaction activity type.  Doing this now throws an Exception.  If you still insist on doing this, set the following to true. -->
		<param name="isAbleToOverwritePtInteractionParams" value="false" />
		<param name="isGeneratingBoardingDeniedEvent" value="false" />
		<!-- if an approximation of the opportunity cost of time is included into the radius calculation for location choice.`true' will be faster, but it is an approximation.  Default is `true'; `false' is available for backwards compatibility. -->
		<param name="isUsingOpportunityCostOfTimeForLocationChoice" value="true" />
		<param name="logitScaleParamForPlansRemoval" value="1.0" />
		<!-- Options: | ignore | info | warn | abort | .  When violating VSP defaults, this results in nothing, logfile infos, logfile warnings, or aborts.  Members of VSP should use `abort' or talk to kai. -->
		<param name="vspDefaultsCheckingLevel" value="ignore" />
		<!-- if true then writes output_events in output directory.  default is `false'. Will only work when lastIteration is multiple of events writing interval -->
		<param name="writingOutputEvents" value="true" />
	</module>

</config>

2024-12-19T00:18:57,619  INFO ControlerUtils:84 Complete config dump done.
2024-12-19T00:18:57,620  INFO ControlerUtils:85 Checking consistency of config...
2024-12-19T00:18:57,620  INFO VspConfigConsistencyCheckerImpl:68 NOT running vsp config consistency check because vsp defaults checking level is set to IGNORE
2024-12-19T00:18:57,626  WARN ConfigConsistencyCheckerImpl:167 Using lanes without enabling linktolinkrouting might not lead to expected simulation results
2024-12-19T00:18:57,626  INFO ControlerUtils:87 Checking consistency of config done.
2024-12-19T00:18:57,626  INFO PrepareForSimImpl:128 Network seems to be multimodal. Create car-only network which is handed over to PersonPrepareForSim.
2024-12-19T00:18:57,628  INFO NetworkImpl:165  node # 1
2024-12-19T00:18:57,628  INFO NetworkImpl:165  node # 4
2024-12-19T00:18:57,628  INFO NetworkImpl:165  node # 16
2024-12-19T00:18:57,629  INFO NetworkImpl:165  node # 64
2024-12-19T00:18:57,629  INFO NetworkImpl:165  node # 256
2024-12-19T00:18:57,631  INFO NetworkImpl:165  node # 1024
2024-12-19T00:18:57,633  INFO NetworkImpl:165  node # 4096
2024-12-19T00:18:57,637  INFO NetworkImpl:165  node # 16384
2024-12-19T00:18:57,641  INFO NetworkImpl:161  link # 1
2024-12-19T00:18:57,642  INFO NetworkImpl:161  link # 4
2024-12-19T00:18:57,642  INFO NetworkImpl:161  link # 16
2024-12-19T00:18:57,643  INFO NetworkImpl:161  link # 64
2024-12-19T00:18:57,645  INFO NetworkImpl:161  link # 256
2024-12-19T00:18:57,649  INFO NetworkImpl:161  link # 1024
2024-12-19T00:18:57,659  INFO NetworkImpl:161  link # 4096
2024-12-19T00:18:57,691  INFO NetworkImpl:161  link # 16384
2024-12-19T00:18:57,779  INFO Counter:70 [VehiclesImpl] added vehicle # 1
2024-12-19T00:18:57,780  INFO Counter:70 [VehiclesImpl] added vehicle # 2
2024-12-19T00:18:57,780  INFO Counter:70 [VehiclesImpl] added vehicle # 4
2024-12-19T00:18:57,780  INFO Counter:70 [VehiclesImpl] added vehicle # 8
2024-12-19T00:18:57,780  INFO Counter:70 [VehiclesImpl] added vehicle # 16
2024-12-19T00:18:57,781  INFO Counter:70 [VehiclesImpl] added vehicle # 32
2024-12-19T00:18:57,781  INFO Counter:70 [VehiclesImpl] added vehicle # 64
2024-12-19T00:18:57,782  INFO Counter:70 [VehiclesImpl] added vehicle # 128
2024-12-19T00:18:57,783  INFO Counter:70 [VehiclesImpl] added vehicle # 256
2024-12-19T00:18:57,785  INFO Counter:70 [VehiclesImpl] added vehicle # 512
2024-12-19T00:18:57,788  INFO Counter:70 [VehiclesImpl] added vehicle # 1024
2024-12-19T00:18:57,791  INFO Counter:70 [VehiclesImpl] added vehicle # 2048
2024-12-19T00:18:57,796  INFO Counter:70 [VehiclesImpl] added vehicle # 4096
2024-12-19T00:18:57,805  INFO Counter:70 [VehiclesImpl] added vehicle # 8192
2024-12-19T00:18:57,819  INFO Counter:70 [VehiclesImpl] added vehicle # 16384
2024-12-19T00:18:57,844  INFO Counter:70 [VehiclesImpl] added vehicle # 32768
2024-12-19T00:18:57,878  INFO Counter:70 [VehiclesImpl] added vehicle # 65536
2024-12-19T00:18:57,951  INFO Counter:70 [VehiclesImpl] added vehicle # 131072
2024-12-19T00:18:58,072  INFO Counter:70 [VehiclesImpl] added vehicle # 262144
2024-12-19T00:18:58,428  INFO Counter:70 [VehiclesImpl] added vehicle # 524288
2024-12-19T00:18:59,000  INFO NetworkImpl:165  node # 1
2024-12-19T00:18:59,000  INFO NetworkImpl:165  node # 4
2024-12-19T00:18:59,001  INFO NetworkImpl:165  node # 16
2024-12-19T00:18:59,001  INFO NetworkImpl:165  node # 64
2024-12-19T00:18:59,001  INFO NetworkImpl:165  node # 256
2024-12-19T00:18:59,001  INFO NetworkImpl:165  node # 1024
2024-12-19T00:18:59,002  INFO NetworkImpl:165  node # 4096
2024-12-19T00:18:59,003  INFO NetworkImpl:165  node # 16384
2024-12-19T00:18:59,004  INFO NetworkImpl:161  link # 1
2024-12-19T00:18:59,004  INFO NetworkImpl:161  link # 4
2024-12-19T00:18:59,004  INFO NetworkImpl:161  link # 16
2024-12-19T00:18:59,005  INFO NetworkImpl:161  link # 64
2024-12-19T00:18:59,005  INFO NetworkImpl:161  link # 256
2024-12-19T00:18:59,006  INFO NetworkImpl:161  link # 1024
2024-12-19T00:18:59,010  INFO NetworkImpl:161  link # 4096
2024-12-19T00:18:59,027  INFO NetworkImpl:161  link # 16384
2024-12-19T00:18:59,097  WARN RandomizingTimeDistanceTravelDisutilityFactory:118 There will be no routing randomness. The randomization of the travel disutility requires the travel time cost rate to be different than zero. Continuing anyway.
2024-12-19T00:18:59,099  INFO RandomizingTimeDistanceTravelDisutilityFactory:86  sigma: 3.0; resulting normalization: 0.011108996538242306
2024-12-19T00:18:59,125  INFO RandomizingTimeDistanceTravelDisutilityFactory:86  sigma: 3.0; resulting normalization: 0.011108996538242306
2024-12-19T00:18:59,196  INFO Counter:70 [PersonPrepareForSim] handled person # 1
2024-12-19T00:18:59,196  INFO Counter:70 [PersonPrepareForSim] handled person # 4
2024-12-19T00:18:59,197  INFO Counter:70 [PersonPrepareForSim] handled person # 8
2024-12-19T00:18:59,197  INFO Counter:70 [PersonPrepareForSim] handled person # 16
2024-12-19T00:18:59,196  INFO Counter:70 [PersonPrepareForSim] handled person # 2
2024-12-19T00:18:59,197  INFO Counter:70 [PersonPrepareForSim] handled person # 32
2024-12-19T00:18:59,197  INFO Counter:70 [PersonPrepareForSim] handled person # 64
2024-12-19T00:18:59,197  INFO Counter:70 [PersonPrepareForSim] handled person # 128
2024-12-19T00:18:59,198  INFO Counter:70 [PersonPrepareForSim] handled person # 256
2024-12-19T00:18:59,198  INFO Counter:70 [PersonPrepareForSim] handled person # 512
2024-12-19T00:18:59,199  INFO Counter:70 [PersonPrepareForSim] handled person # 1024
2024-12-19T00:18:59,200  INFO Counter:70 [PersonPrepareForSim] handled person # 2048
2024-12-19T00:18:59,202  INFO Counter:70 [PersonPrepareForSim] handled person # 4096
2024-12-19T00:18:59,204  INFO Counter:70 [PersonPrepareForSim] handled person # 8192
2024-12-19T00:18:59,208  INFO Counter:70 [PersonPrepareForSim] handled person # 16384
2024-12-19T00:18:59,217  INFO Counter:70 [PersonPrepareForSim] handled person # 32768
2024-12-19T00:18:59,233  INFO Counter:70 [PersonPrepareForSim] handled person # 65536
2024-12-19T00:18:59,248  INFO Counter:70 [PersonPrepareForSim] handled person # 131072
2024-12-19T00:18:59,263  INFO Counter:70 [PersonPrepareForSim] handled person # 262144
2024-12-19T00:18:59,349  INFO Counter:70 [PersonPrepareForSim] handled person # 524288
2024-12-19T00:18:59,378  INFO Counter:75 [PersonPrepareForSim] handled person # 873965
2024-12-19T00:18:59,435  INFO AbstractController:136 ###################################################
2024-12-19T00:18:59,436  INFO AbstractController:137 ### ITERATION 0 BEGINS
2024-12-19T00:18:59,437  INFO ControlerListenerManagerImpl:156 calling notifyIterationStarts on org.matsim.analysis.LegHistogramListener with priority 0.0
2024-12-19T00:18:59,437  INFO ControlerListenerManagerImpl:156 calling notifyIterationStarts on org.matsim.analysis.LinkStatsControlerListener with priority 0.0
2024-12-19T00:18:59,437  INFO ControlerListenerManagerImpl:156 calling notifyIterationStarts on org.matsim.core.replanning.ReplanningContextImpl with priority 0.0
2024-12-19T00:18:59,437  INFO ControlerListenerManagerImpl:156 calling notifyIterationStarts on org.matsim.core.scoring.ScoringFunctionsForPopulation$$Lambda$234/0x00007fc408350d40 with priority 0.0
2024-12-19T00:19:00,381  INFO ControlerListenerManagerImpl:156 calling notifyIterationStarts on org.matsim.core.scoring.ExperiencedPlansServiceImpl$1 with priority 0.0
2024-12-19T00:19:00,434  INFO ControlerListenerManagerImpl:159 [it.0] all ControlerIterationStartsListeners called.
2024-12-19T00:19:00,435  INFO ControlerListenerManagerImpl:242 calling notifyBeforeMobsim on org.matsim.core.controler.corelisteners.EventsHandlingImpl with priority 0.0
2024-12-19T00:19:00,435  INFO EventsManagerImpl:168 resetting Event-Handlers
2024-12-19T00:19:00,435  INFO EventsManagerImpl:175   org.matsim.core.trafficmonitoring.TravelTimeCalculator
2024-12-19T00:19:00,435  INFO EventsManagerImpl:175   org.matsim.analysis.VolumesAnalyzer
2024-12-19T00:19:00,436  INFO EventsManagerImpl:175   org.matsim.core.scoring.ScoringFunctionsForPopulation
2024-12-19T00:19:00,436  INFO EventsManagerImpl:175   org.matsim.analysis.LegHistogram
2024-12-19T00:19:00,436  INFO EventsManagerImpl:175   org.matsim.analysis.CalcLegTimes
2024-12-19T00:19:00,440  INFO EventsManagerImpl:138 adding Event-Handler: org.matsim.core.events.algorithms.EventWriterXML
2024-12-19T00:19:00,440  INFO EventsManagerImpl:144   org.matsim.core.events.algorithms.EventWriter
2024-12-19T00:19:00,440  INFO EventsManagerImpl:144   org.matsim.core.events.handler.BasicEventHandler
2024-12-19T00:19:00,441  INFO EventsManagerImpl:205     > org.matsim.api.core.v01.events.Event
2024-12-19T00:19:00,441  INFO EventsManagerImpl:154 
2024-12-19T00:19:00,441  INFO EventsManagerImpl:138 adding Event-Handler: org.matsim.core.events.algorithms.EventWriterXML
2024-12-19T00:19:00,441  INFO EventsManagerImpl:144   org.matsim.core.events.algorithms.EventWriter
2024-12-19T00:19:00,441  INFO EventsManagerImpl:144   org.matsim.core.events.handler.BasicEventHandler
2024-12-19T00:19:00,441  INFO EventsManagerImpl:205     > org.matsim.api.core.v01.events.Event
2024-12-19T00:19:00,441  INFO EventsManagerImpl:154 
2024-12-19T00:19:00,441  INFO ControlerListenerManagerImpl:242 calling notifyBeforeMobsim on org.matsim.core.controler.corelisteners.PlansDumpingImpl with priority 0.0
2024-12-19T00:19:00,441  INFO PlansDumpingImpl:77 dumping plans...
2024-12-19T00:19:00,991  INFO Counter:70 [PopulationWriter] dumped person # 1
2024-12-19T00:19:00,992  INFO Counter:70 [PopulationWriter] dumped person # 2
2024-12-19T00:19:00,992  INFO Counter:70 [PopulationWriter] dumped person # 4
2024-12-19T00:19:00,992  INFO Counter:70 [PopulationWriter] dumped person # 8
2024-12-19T00:19:00,992  INFO Counter:70 [PopulationWriter] dumped person # 16
2024-12-19T00:19:00,992  INFO Counter:70 [PopulationWriter] dumped person # 32
2024-12-19T00:19:00,992  INFO Counter:70 [PopulationWriter] dumped person # 64
2024-12-19T00:19:00,992  INFO Counter:70 [PopulationWriter] dumped person # 128
2024-12-19T00:19:00,993  INFO Counter:70 [PopulationWriter] dumped person # 256
2024-12-19T00:19:00,994  INFO Counter:70 [PopulationWriter] dumped person # 512
2024-12-19T00:19:01,000  INFO Counter:70 [ParallelPopulationWriterV6] dumped person # 1
2024-12-19T00:19:01,001  INFO Counter:70 [ParallelPopulationWriterV6] dumped person # 2
2024-12-19T00:19:01,001  INFO Counter:70 [ParallelPopulationWriterV6] dumped person # 4
2024-12-19T00:19:01,001  INFO Counter:70 [ParallelPopulationWriterV6] dumped person # 8
2024-12-19T00:19:01,002  INFO Counter:70 [ParallelPopulationWriterV6] dumped person # 16
2024-12-19T00:19:01,002  INFO Counter:70 [PopulationWriter] dumped person # 1024
2024-12-19T00:19:01,003  INFO Counter:70 [ParallelPopulationWriterV6] dumped person # 32
2024-12-19T00:19:01,004  INFO Counter:70 [ParallelPopulationWriterV6] dumped person # 64
2024-12-19T00:19:01,007  INFO Counter:70 [ParallelPopulationWriterV6] dumped person # 128
2024-12-19T00:19:01,012  INFO Counter:70 [ParallelPopulationWriterV6] dumped person # 256
2024-12-19T00:19:01,021  INFO Counter:70 [ParallelPopulationWriterV6] dumped person # 512
2024-12-19T00:19:01,034  INFO Counter:70 [ParallelPopulationWriterV6] dumped person # 1024
2024-12-19T00:19:01,035  INFO Counter:70 [PopulationWriter] dumped person # 2048
2024-12-19T00:19:01,051  INFO Counter:70 [ParallelPopulationWriterV6] dumped person # 2048
2024-12-19T00:19:01,059  INFO Counter:70 [PopulationWriter] dumped person # 4096
2024-12-19T00:19:01,067  INFO Counter:70 [ParallelPopulationWriterV6] dumped person # 4096
2024-12-19T00:19:01,106  INFO Counter:70 [PopulationWriter] dumped person # 8192
2024-12-19T00:19:01,113  INFO Counter:70 [ParallelPopulationWriterV6] dumped person # 8192
2024-12-19T00:19:01,187  INFO Counter:70 [PopulationWriter] dumped person # 16384
2024-12-19T00:19:01,202  INFO Counter:70 [ParallelPopulationWriterV6] dumped person # 16384
2024-12-19T00:19:01,359  INFO Counter:70 [PopulationWriter] dumped person # 32768
2024-12-19T00:19:01,366  INFO Counter:70 [ParallelPopulationWriterV6] dumped person # 32768
2024-12-19T00:19:01,663  INFO Counter:70 [PopulationWriter] dumped person # 65536
2024-12-19T00:19:01,669  INFO Counter:70 [ParallelPopulationWriterV6] dumped person # 65536
2024-12-19T00:19:02,111  INFO Counter:70 [PopulationWriter] dumped person # 131072
2024-12-19T00:19:02,116  INFO Counter:70 [ParallelPopulationWriterV6] dumped person # 131072
2024-12-19T00:19:02,785  INFO Counter:70 [PopulationWriter] dumped person # 262144
2024-12-19T00:19:02,790  INFO Counter:70 [ParallelPopulationWriterV6] dumped person # 262144
2024-12-19T00:19:04,117  INFO Counter:70 [PopulationWriter] dumped person # 524288
2024-12-19T00:19:04,122  INFO Counter:70 [ParallelPopulationWriterV6] dumped person # 524288
2024-12-19T00:19:05,906  INFO Counter:75 [ParallelPopulationWriterV6] dumped person # 873965
2024-12-19T00:19:05,907  INFO PopulationWriter:150 Population written to: scenarios/equil/output/run_20241219_001848/ITERS/it.0/0.plans.xml.gz
2024-12-19T00:19:05,907  INFO Counter:75 [PopulationWriter] dumped person # 873965
2024-12-19T00:19:05,907  INFO PlansDumpingImpl:94 finished plans dump.
2024-12-19T00:19:05,908  INFO ControlerListenerManagerImpl:248 calling notifyBeforeMobsim on org.matsim.core.population.VspPlansCleaner with priority 0.0
2024-12-19T00:19:06,021  INFO ControlerListenerManagerImpl:251 [it.0] all ControlerBeforeMobsimListeners called.
2024-12-19T00:19:06,021  INFO PrepareForMobsimImpl:86 Network seems to be multimodal. Create car-only network which is handed over to PersonPrepareForSim.
2024-12-19T00:19:06,022  INFO NetworkImpl:165  node # 1
2024-12-19T00:19:06,022  INFO NetworkImpl:165  node # 4
2024-12-19T00:19:06,022  INFO NetworkImpl:165  node # 16
2024-12-19T00:19:06,022  INFO NetworkImpl:165  node # 64
2024-12-19T00:19:06,022  INFO NetworkImpl:165  node # 256
2024-12-19T00:19:06,022  INFO NetworkImpl:165  node # 1024
2024-12-19T00:19:06,023  INFO NetworkImpl:165  node # 4096
2024-12-19T00:19:06,023  INFO NetworkImpl:165  node # 16384
2024-12-19T00:19:06,024  INFO NetworkImpl:161  link # 1
2024-12-19T00:19:06,024  INFO NetworkImpl:161  link # 4
2024-12-19T00:19:06,024  INFO NetworkImpl:161  link # 16
2024-12-19T00:19:06,025  INFO NetworkImpl:161  link # 64
2024-12-19T00:19:06,025  INFO NetworkImpl:161  link # 256
2024-12-19T00:19:06,026  INFO NetworkImpl:161  link # 1024
2024-12-19T00:19:06,028  INFO NetworkImpl:161  link # 4096
2024-12-19T00:19:06,039  INFO NetworkImpl:161  link # 16384
2024-12-19T00:19:06,092  INFO RandomizingTimeDistanceTravelDisutilityFactory:86  sigma: 3.0; resulting normalization: 0.011108996538242306
2024-12-19T00:19:06,096  INFO RandomizingTimeDistanceTravelDisutilityFactory:86  sigma: 3.0; resulting normalization: 0.011108996538242306
2024-12-19T00:19:06,142  INFO Counter:70 [PersonPrepareForSim] handled person # 1
2024-12-19T00:19:06,142  INFO Counter:70 [PersonPrepareForSim] handled person # 2
2024-12-19T00:19:06,143  INFO Counter:70 [PersonPrepareForSim] handled person # 4
2024-12-19T00:19:06,143  INFO Counter:70 [PersonPrepareForSim] handled person # 8
2024-12-19T00:19:06,143  INFO Counter:70 [PersonPrepareForSim] handled person # 16
2024-12-19T00:19:06,143  INFO Counter:70 [PersonPrepareForSim] handled person # 32
2024-12-19T00:19:06,143  INFO Counter:70 [PersonPrepareForSim] handled person # 64
2024-12-19T00:19:06,143  INFO Counter:70 [PersonPrepareForSim] handled person # 128
2024-12-19T00:19:06,143  INFO Counter:70 [PersonPrepareForSim] handled person # 256
2024-12-19T00:19:06,143  INFO Counter:70 [PersonPrepareForSim] handled person # 512
2024-12-19T00:19:06,143  INFO Counter:70 [PersonPrepareForSim] handled person # 1024
2024-12-19T00:19:06,143  INFO Counter:70 [PersonPrepareForSim] handled person # 2048
2024-12-19T00:19:06,144  INFO Counter:70 [PersonPrepareForSim] handled person # 4096
2024-12-19T00:19:06,144  INFO Counter:70 [PersonPrepareForSim] handled person # 8192
2024-12-19T00:19:06,145  INFO Counter:70 [PersonPrepareForSim] handled person # 16384
2024-12-19T00:19:06,147  INFO Counter:70 [PersonPrepareForSim] handled person # 32768
2024-12-19T00:19:06,151  INFO Counter:70 [PersonPrepareForSim] handled person # 65536
2024-12-19T00:19:06,158  INFO Counter:70 [PersonPrepareForSim] handled person # 131072
2024-12-19T00:19:06,172  INFO Counter:70 [PersonPrepareForSim] handled person # 262144
2024-12-19T00:19:06,200  INFO Counter:70 [PersonPrepareForSim] handled person # 524288
2024-12-19T00:19:06,234  INFO Counter:75 [PersonPrepareForSim] handled person # 873965
2024-12-19T00:19:06,290  INFO MobsimListenerManager:50 calling addQueueSimulationListener
2024-12-19T00:19:06,291  INFO MobsimListenerManager:54   assigned class org.matsim.core.mobsim.framework.listeners.MobsimListener to interface org.matsim.core.mobsim.framework.listeners.MobsimAfterSimStepListener
2024-12-19T00:19:06,291  INFO MobsimListenerManager:54   assigned class org.matsim.core.mobsim.framework.listeners.MobsimListener to interface org.matsim.vis.snapshotwriters.SnapshotWriterManager
2024-12-19T00:19:06,291  INFO MobsimListenerManager:54   assigned class org.matsim.core.mobsim.framework.listeners.MobsimListener to interface org.matsim.core.mobsim.framework.listeners.MobsimListener
2024-12-19T00:19:06,291  INFO MobsimListenerManager:54   assigned class org.matsim.core.mobsim.framework.listeners.MobsimListener to interface org.matsim.core.mobsim.framework.listeners.MobsimInitializedListener
2024-12-19T00:19:06,291  INFO MobsimListenerManager:54   assigned class org.matsim.core.mobsim.framework.listeners.MobsimListener to interface org.matsim.core.mobsim.framework.listeners.MobsimBeforeCleanupListener
2024-12-19T00:19:06,294  INFO QSimProvider:131 Added MobsimEngine class org.matsim.core.mobsim.qsim.ActivityEngineDefaultImpl
2024-12-19T00:19:06,294  INFO QSimProvider:137 Added Activityhandler class org.matsim.core.mobsim.qsim.ActivityEngineDefaultImpl
2024-12-19T00:19:06,320  WARN QueueWithBuffer:500 Link 10068307960002r too small: enlarge storage capacity from: 30.751821577296326 Vehicles to: 32.2280510272399 Vehicles.  This is not fatal, but modifies the traffic flow dynamics.
2024-12-19T00:19:06,323  WARN QueueWithBuffer:500 Link 1015553310002f too small: enlarge storage capacity from: 4.62488207043763 Vehicles to: 6.147510936225913 Vehicles.  This is not fatal, but modifies the traffic flow dynamics.
2024-12-19T00:19:06,326  WARN QueueWithBuffer:500 Link 10370677300001f too small: enlarge storage capacity from: 18.027739271673383 Vehicles to: 22.403835689166996 Vehicles.  This is not fatal, but modifies the traffic flow dynamics.
2024-12-19T00:19:06,327  WARN QueueWithBuffer:500 Link 10413495490001f too small: enlarge storage capacity from: 8.672628913576045 Vehicles to: 9.727938244241258 Vehicles.  This is not fatal, but modifies the traffic flow dynamics.
2024-12-19T00:19:06,327  WARN QueueWithBuffer:500 Link 10413599840000f too small: enlarge storage capacity from: 25.23363458153814 Vehicles to: 28.588096123219845 Vehicles.  This is not fatal, but modifies the traffic flow dynamics.
2024-12-19T00:19:06,328  WARN QueueWithBuffer:500 Link 10512073740004f too small: enlarge storage capacity from: 16.716315233144627 Vehicles to: 18.28277179896496 Vehicles.  This is not fatal, but modifies the traffic flow dynamics.
2024-12-19T00:19:06,329  WARN QueueWithBuffer:500 Link 10538620160000f too small: enlarge storage capacity from: 48.50009954607647 Vehicles to: 55.75287139785118 Vehicles.  This is not fatal, but modifies the traffic flow dynamics.
2024-12-19T00:19:06,329  WARN QueueWithBuffer:500 Link 10546499840000f too small: enlarge storage capacity from: 3.6126449538282297 Vehicles to: 4.751397974587683 Vehicles.  This is not fatal, but modifies the traffic flow dynamics.
2024-12-19T00:19:06,329  WARN QueueWithBuffer:500 Link 10546499840000r too small: enlarge storage capacity from: 3.6126449538282297 Vehicles to: 4.751397974587683 Vehicles.  This is not fatal, but modifies the traffic flow dynamics.
2024-12-19T00:19:06,330  WARN QueueWithBuffer:500 Link 10627669770000f too small: enlarge storage capacity from: 11.306410019745204 Vehicles to: 16.103143417033248 Vehicles.  This is not fatal, but modifies the traffic flow dynamics.
2024-12-19T00:19:06,331  WARN QueueWithBuffer:500 Link 1069639280001f too small: enlarge storage capacity from: 22.673767251815303 Vehicles to: 26.691384652030923 Vehicles.  This is not fatal, but modifies the traffic flow dynamics.
2024-12-19T00:19:06,331  WARN QueueWithBuffer:503 Additional warnings of this type are suppressed.
2024-12-19T00:19:06,452  INFO QSimProvider:143 Added DepartureHandler class org.matsim.core.mobsim.qsim.qnetsimengine.VehicularDepartureHandler
2024-12-19T00:19:06,452  INFO QSimProvider:131 Added MobsimEngine class org.matsim.core.mobsim.qsim.qnetsimengine.QNetsimEngineWithThreadpool
2024-12-19T00:19:06,453  INFO QSimProvider:131 Added MobsimEngine class org.matsim.core.mobsim.qsim.DefaultTeleportationEngine
2024-12-19T00:19:06,453  INFO QSimProvider:143 Added DepartureHandler class org.matsim.core.mobsim.qsim.DefaultTeleportationEngine
2024-12-19T00:19:06,453  INFO QSimProvider:149 Added AgentSource class org.matsim.core.mobsim.qsim.agents.PopulationAgentSource
2024-12-19T00:19:06,453  INFO MobsimListenerManager:50 calling addQueueSimulationListener
2024-12-19T00:19:06,453  INFO MobsimListenerManager:54   assigned class org.matsim.core.mobsim.framework.listeners.MobsimListener to interface org.matsim.core.mobsim.framework.listeners.MobsimBeforeSimStepListener
2024-12-19T00:19:06,454  INFO MobsimListenerManager:54   assigned class org.matsim.core.mobsim.framework.listeners.MobsimListener to interface org.matsim.core.mobsim.framework.listeners.MobsimListener
2024-12-19T00:19:06,454  INFO MobsimListenerManager:54   assigned class org.matsim.core.mobsim.framework.listeners.MobsimListener to interface org.matsim.core.mobsim.qsim.messagequeueengine.MessageQueueEngine
2024-12-19T00:19:06,454  INFO QSimProvider:155 Added MobsimListener class org.matsim.core.mobsim.qsim.messagequeueengine.MessageQueueEngine
2024-12-19T00:19:06,459  INFO PopulationUtils:1247 adding scenario element for allpersons container
2024-12-19T00:19:06,460  INFO PopulationImpl:107  person # 1
2024-12-19T00:19:06,460  INFO PopulationImpl:107  person # 4
2024-12-19T00:19:06,460  INFO PopulationImpl:107  person # 16
2024-12-19T00:19:06,461  INFO PopulationImpl:107  person # 64
2024-12-19T00:19:06,463  INFO PopulationImpl:107  person # 256
2024-12-19T00:19:06,468  INFO PopulationImpl:107  person # 1024
2024-12-19T00:19:06,474  INFO PopulationImpl:107  person # 4096
2024-12-19T00:19:06,489  INFO PopulationImpl:107  person # 16384
2024-12-19T00:19:06,543  INFO PopulationImpl:107  person # 65536
2024-12-19T00:19:06,654  INFO PopulationImpl:107  person # 262144
2024-12-19T00:19:07,383  INFO AbstractQNetsimEngine:426 Assigned 27759 nodes and 64052 links to QSimEngineRunner #0
2024-12-19T00:19:08,306  INFO EventsManagerImpl:115  event # 1
2024-12-19T00:19:08,308  INFO EventsManagerImpl:115  event # 4
2024-12-19T00:19:08,309  INFO EventsManagerImpl:115  event # 16
2024-12-19T00:19:08,311  INFO EventsManagerImpl:115  event # 64
2024-12-19T00:19:08,318  INFO EventsManagerImpl:115  event # 256
2024-12-19T00:19:08,333  INFO EventsManagerImpl:115  event # 1024
2024-12-19T00:19:08,354  INFO EventsManagerImpl:115  event # 4096
2024-12-19T00:19:08,407  INFO EventsManagerImpl:115  event # 16384
2024-12-19T00:19:08,781  INFO EventsManagerImpl:115  event # 65536
2024-12-19T00:19:09,314  INFO EventsManagerImpl:115  event # 262144
2024-12-19T00:19:11,321  INFO AbstractQNetsimEngine:364 SIMULATION (QNetsimEngine) AT 08:00:00 : #links=0 #nodes=0
2024-12-19T00:19:11,326  INFO QSim:566 SIMULATION (NEW QSim) AT 08:00:00 : #Veh=0 lost=0 simT=0.0s realT=5s; (s/r): 0.0
2024-12-19T00:19:11,723  INFO EventsManagerImpl:115  event # 1048576
2024-12-19T00:19:13,442  INFO AbstractController$9:237 ### ITERATION 0 fires after mobsim event
2024-12-19T00:19:13,442  INFO Gbl:196 Thread performance: Thread=class org.matsim.core.events.SimStepParallelEventsManagerImpl$ProcessEventsRunnable0  cpu-time=4.48552989sec
2024-12-19T00:19:13,443  INFO ControlerListenerManagerImpl:269 calling notifyAfterMobsim on org.matsim.analysis.LegTimesControlerListener with priority 0.0
2024-12-19T00:19:13,446  INFO LegTimesControlerListener:51 [0] average trip (probably: leg) duration is: 0 seconds = 00:00:00
2024-12-19T00:19:13,446  INFO ControlerListenerManagerImpl:269 calling notifyAfterMobsim on org.matsim.core.events.MobsimScopeEventHandling with priority 0.0
2024-12-19T00:19:13,447  INFO ControlerListenerManagerImpl:269 calling notifyAfterMobsim on org.matsim.core.scoring.EventsToActivities$1 with priority 0.0
2024-12-19T00:19:13,448  WARN CharyparNagelActivityScoring:247 The first and the last activity do not have the same type. 
2024-12-19T00:19:13,448  WARN CharyparNagelActivityScoring:248 Will score the first activity from midnight to its end, and the last activity from its start to midnight.
2024-12-19T00:19:13,448  WARN CharyparNagelActivityScoring:249 Because of the nonlinear function, this is not the same as scoring from start to end.
2024-12-19T00:19:13,453  WARN CharyparNagelActivityScoring:250 first activity: act [type=home][coord=null][linkId=3991634660002f][startTime=undefined][endTime=08:00:00][duration=undefined][facilityId=null]
2024-12-19T00:19:13,453  WARN CharyparNagelActivityScoring:251 last activity: act [type=work][coord=null][linkId=3991634660002f][startTime=08:00:00][endTime=undefined][duration=undefined][facilityId=null]
2024-12-19T00:19:13,453  WARN CharyparNagelActivityScoring:252 This may also happen when plans are not completed when the simulation ends.
2024-12-19T00:19:13,453  WARN CharyparNagelActivityScoring:254 Additional warnings of this type are suppressed.
2024-12-19T00:19:13,989  INFO ControlerListenerManagerImpl:272 [it.0] all ControlerAfterMobsimListeners called.
2024-12-19T00:19:13,989  INFO AbstractController$4:162 ### ITERATION 0 fires scoring event
2024-12-19T00:19:13,990  INFO ControlerListenerManagerImpl:197 calling notifyScoring on org.matsim.core.scoring.PlansScoringImpl with priority 0.0
2024-12-19T00:19:14,327  INFO NewScoreAssignerImpl:58 it: 0 msaStart: null
2024-12-19T00:19:14,584  INFO ControlerListenerManagerImpl:209 [it.0] all ControlerScoringListeners called.
2024-12-19T00:19:14,585  INFO AbstractController$5:170 ### ITERATION 0 fires iteration end event
2024-12-19T00:19:14,585  INFO ControlerListenerManagerImpl:172 calling notifyIterationEnds on org.matsim.core.controler.corelisteners.EventsHandlingImpl with priority 0.0
2024-12-19T00:19:14,586  INFO EventsManagerImpl:159 removing Event-Handler: org.matsim.core.events.algorithms.EventWriterXML
2024-12-19T00:19:14,586  INFO EventsManagerImpl:159 removing Event-Handler: org.matsim.core.events.algorithms.EventWriterXML
2024-12-19T00:19:14,586  INFO ControlerListenerManagerImpl:172 calling notifyIterationEnds on org.matsim.core.scoring.PlansScoringImpl with priority 0.0
2024-12-19T00:19:14,795  INFO ControlerListenerManagerImpl:180 calling notifyIterationEnds on org.matsim.counts.CountsControlerListener with priority 0.0
2024-12-19T00:19:14,795  INFO ControlerListenerManagerImpl:180 calling notifyIterationEnds on org.matsim.analysis.ModeStatsControlerListener with priority 0.0
2024-12-19T00:19:14,911  INFO ModeStatsControlerListener:133 Mode shares over all 0.0 trips found. MainModeIdentifier: class org.matsim.core.router.DefaultAnalysisMainModeIdentifier
2024-12-19T00:19:14,911  INFO ControlerListenerManagerImpl:180 calling notifyIterationEnds on org.matsim.analysis.ScoreStatsControlerListener with priority 0.0
2024-12-19T00:19:15,021  INFO ScoreStatsControlerListener:154 -- avg. score of the executed plan of each agent: 97.1962346729156
2024-12-19T00:19:15,021  INFO ScoreStatsControlerListener:155 -- avg. score of the worst plan of each agent: 97.1962346729156
2024-12-19T00:19:15,021  INFO ScoreStatsControlerListener:156 -- avg. of the avg. plan score per agent: 97.1962346729156
2024-12-19T00:19:15,021  INFO ScoreStatsControlerListener:157 -- avg. score of the best plan of each agent: 97.1962346729156
2024-12-19T00:19:15,027  INFO ControlerListenerManagerImpl:180 calling notifyIterationEnds on org.matsim.analysis.IterationTravelStatsControlerListener with priority 0.0
2024-12-19T00:19:15,248  INFO TravelDistanceStats:115 -- average leg distance per plan (executed plans only): 0.0 meters
2024-12-19T00:19:15,249  INFO TravelDistanceStats:116 average leg distance per Person (executed plans only): 0.0 meters (statistic on all 0 legs which have a finite distance)
2024-12-19T00:19:15,249  INFO TravelDistanceStats:117 -- average trip distance per plan (executed plans only): 0.0 meters
2024-12-19T00:19:15,249  INFO TravelDistanceStats:118 average trip distance per Person (executed plans only): 0.0 meters (statistic on all 0 trips which have a finite distance)
2024-12-19T00:19:15,249  INFO TravelDistanceStats:119 (TravelDistanceStats takes an average over all legs where the simulation reports travelled (network) distances
2024-12-19T00:19:15,249  INFO TravelDistanceStats:120 (and teleported legs whose route contains a distance.)
2024-12-19T00:19:15,460  INFO ActivityWriter:39 Writing all Activities to activitiescsv
2024-12-19T00:19:19,559  INFO ActivityWriter:59 ...done
2024-12-19T00:19:19,559  INFO ControlerListenerManagerImpl:180 calling notifyIterationEnds on org.matsim.analysis.LegHistogramListener with priority 0.0
2024-12-19T00:19:19,566  INFO LegHistogramListener:73 number of legs:	0	100%
2024-12-19T00:19:19,672  INFO ControlerListenerManagerImpl:180 calling notifyIterationEnds on org.matsim.analysis.LinkStatsControlerListener with priority 0.0
2024-12-19T00:19:19,672  INFO ControlerListenerManagerImpl:184 [it.0] all ControlerIterationEndsListeners called.
2024-12-19T00:19:19,756  INFO AbstractController:184 ### ITERATION 0 ENDS
2024-12-19T00:19:19,756  INFO AbstractController:185 ###################################################
2024-12-19T00:19:19,757  INFO AbstractController:136 ###################################################
2024-12-19T00:19:19,757  INFO AbstractController:137 ### ITERATION 1 BEGINS
2024-12-19T00:19:19,757  INFO ControlerListenerManagerImpl:156 calling notifyIterationStarts on org.matsim.analysis.LegHistogramListener with priority 0.0
2024-12-19T00:19:19,757  INFO ControlerListenerManagerImpl:156 calling notifyIterationStarts on org.matsim.analysis.LinkStatsControlerListener with priority 0.0
2024-12-19T00:19:19,757  INFO ControlerListenerManagerImpl:156 calling notifyIterationStarts on org.matsim.core.replanning.ReplanningContextImpl with priority 0.0
2024-12-19T00:19:19,757  INFO ControlerListenerManagerImpl:156 calling notifyIterationStarts on org.matsim.core.scoring.ScoringFunctionsForPopulation$$Lambda$234/0x00007fc408350d40 with priority 0.0
2024-12-19T00:19:20,369  INFO ControlerListenerManagerImpl:156 calling notifyIterationStarts on org.matsim.core.scoring.ExperiencedPlansServiceImpl$1 with priority 0.0
2024-12-19T00:19:20,422  INFO ControlerListenerManagerImpl:159 [it.1] all ControlerIterationStartsListeners called.
2024-12-19T00:19:20,423  INFO ControlerListenerManagerImpl:221 calling notifyReplanning on org.matsim.core.controler.corelisteners.PlansReplanningImpl with priority 0.0
2024-12-19T00:19:20,424  INFO RandomizingTimeDistanceTravelDisutilityFactory:86  sigma: 3.0; resulting normalization: 0.011108996538242306
2024-12-19T00:19:20,424  INFO RandomizingTimeDistanceTravelDisutilityFactory:86  sigma: 3.0; resulting normalization: 0.011108996538242306
2024-12-19T00:19:20,743  INFO GenericPlanStrategyImpl:135 Plan-Strategy finished, 786510 plans handled. Strategy: BestPlanSelector
2024-12-19T00:19:20,743  INFO AbstractMultithreadedModule:142 [PlanRouter] starting 2 threads, handling 87455 plans
2024-12-19T00:19:20,744  INFO Counter:70 [PlanRouter] handled plan # 2
2024-12-19T00:19:20,744  INFO Counter:70 [PlanRouter] handled plan # 1
2024-12-19T00:19:20,744  INFO Counter:70 [PlanRouter] handled plan # 4
2024-12-19T00:19:20,744  INFO Counter:70 [PlanRouter] handled plan # 8
2024-12-19T00:19:20,745  INFO Counter:70 [PlanRouter] handled plan # 16
2024-12-19T00:19:20,745  INFO Counter:70 [PlanRouter] handled plan # 32
2024-12-19T00:19:20,745  INFO Counter:70 [PlanRouter] handled plan # 64
2024-12-19T00:19:20,745  INFO Counter:70 [PlanRouter] handled plan # 128
2024-12-19T00:19:20,745  INFO Counter:70 [PlanRouter] handled plan # 256
2024-12-19T00:19:20,745  INFO Counter:70 [PlanRouter] handled plan # 512
2024-12-19T00:19:20,746  INFO Counter:70 [PlanRouter] handled plan # 1024
2024-12-19T00:19:20,746  INFO Counter:70 [PlanRouter] handled plan # 2048
2024-12-19T00:19:20,747  INFO Counter:70 [PlanRouter] handled plan # 4096
2024-12-19T00:19:20,748  INFO Counter:70 [PlanRouter] handled plan # 8192
2024-12-19T00:19:20,751  INFO Counter:70 [PlanRouter] handled plan # 16384
2024-12-19T00:19:20,755  INFO Counter:70 [PlanRouter] handled plan # 32768
2024-12-19T00:19:20,763  INFO Counter:70 [PlanRouter] handled plan # 65536
2024-12-19T00:19:20,767  INFO AbstractMultithreadedModule:157 [PlanRouter] all 2 threads finished.
2024-12-19T00:19:20,767  INFO GenericPlanStrategyImpl:135 Plan-Strategy finished, 87455 plans handled. Strategy: RandomPlanSelector_ReRoute
2024-12-19T00:19:20,768  INFO ControlerListenerManagerImpl:230 [it.1] all ControlerReplanningListeners called.
2024-12-19T00:19:20,768  INFO ControlerListenerManagerImpl:242 calling notifyBeforeMobsim on org.matsim.core.controler.corelisteners.EventsHandlingImpl with priority 0.0
2024-12-19T00:19:20,768  INFO EventsManagerImpl:168 resetting Event-Handlers
2024-12-19T00:19:20,768  INFO EventsManagerImpl:175   org.matsim.core.trafficmonitoring.TravelTimeCalculator
2024-12-19T00:19:20,769  INFO EventsManagerImpl:175   org.matsim.analysis.VolumesAnalyzer
2024-12-19T00:19:20,769  INFO EventsManagerImpl:175   org.matsim.core.scoring.ScoringFunctionsForPopulation
2024-12-19T00:19:20,771  INFO EventsManagerImpl:175   org.matsim.analysis.LegHistogram
2024-12-19T00:19:20,771  INFO EventsManagerImpl:175   org.matsim.analysis.CalcLegTimes
2024-12-19T00:19:20,773  INFO EventsManagerImpl:138 adding Event-Handler: org.matsim.core.events.algorithms.EventWriterXML
2024-12-19T00:19:20,774  INFO EventsManagerImpl:144   org.matsim.core.events.algorithms.EventWriter
2024-12-19T00:19:20,774  INFO EventsManagerImpl:144   org.matsim.core.events.handler.BasicEventHandler
2024-12-19T00:19:20,774  INFO EventsManagerImpl:205     > org.matsim.api.core.v01.events.Event
2024-12-19T00:19:20,774  INFO EventsManagerImpl:154 
2024-12-19T00:19:20,774  INFO EventsManagerImpl:138 adding Event-Handler: org.matsim.core.events.algorithms.EventWriterXML
2024-12-19T00:19:20,774  INFO EventsManagerImpl:144   org.matsim.core.events.algorithms.EventWriter
[...]
2024-12-19T00:19:26,648  INFO NetworkImpl:165  node # 4
2024-12-19T00:19:26,648  INFO NetworkImpl:165  node # 16
2024-12-19T00:19:26,648  INFO NetworkImpl:165  node # 64
2024-12-19T00:19:26,648  INFO NetworkImpl:165  node # 256
2024-12-19T00:19:26,648  INFO NetworkImpl:165  node # 1024
2024-12-19T00:19:26,649  INFO NetworkImpl:165  node # 4096
2024-12-19T00:19:26,650  INFO NetworkImpl:165  node # 16384
2024-12-19T00:19:26,651  INFO NetworkImpl:161  link # 1
2024-12-19T00:19:26,651  INFO NetworkImpl:161  link # 4
2024-12-19T00:19:26,651  INFO NetworkImpl:161  link # 16
2024-12-19T00:19:26,651  INFO NetworkImpl:161  link # 64
2024-12-19T00:19:26,651  INFO NetworkImpl:161  link # 256
2024-12-19T00:19:26,652  INFO NetworkImpl:161  link # 1024
2024-12-19T00:19:26,655  INFO NetworkImpl:161  link # 4096
2024-12-19T00:19:26,666  INFO NetworkImpl:161  link # 16384
2024-12-19T00:19:26,716  INFO RandomizingTimeDistanceTravelDisutilityFactory:86  sigma: 3.0; resulting normalization: 0.011108996538242306
2024-12-19T00:19:26,720  INFO RandomizingTimeDistanceTravelDisutilityFactory:86  sigma: 3.0; resulting normalization: 0.011108996538242306
2024-12-19T00:19:26,757  INFO Counter:70 [PersonPrepareForSim] handled person # 1
2024-12-19T00:19:26,757  INFO Counter:70 [PersonPrepareForSim] handled person # 2
2024-12-19T00:19:26,757  INFO Counter:70 [PersonPrepareForSim] handled person # 4
2024-12-19T00:19:26,757  INFO Counter:70 [PersonPrepareForSim] handled person # 8
2024-12-19T00:19:26,757  INFO Counter:70 [PersonPrepareForSim] handled person # 16
2024-12-19T00:19:26,757  INFO Counter:70 [PersonPrepareForSim] handled person # 32
2024-12-19T00:19:26,757  INFO Counter:70 [PersonPrepareForSim] handled person # 64
2024-12-19T00:19:26,758  INFO Counter:70 [PersonPrepareForSim] handled person # 128
2024-12-19T00:19:26,758  INFO Counter:70 [PersonPrepareForSim] handled person # 256
2024-12-19T00:19:26,758  INFO Counter:70 [PersonPrepareForSim] handled person # 512
2024-12-19T00:19:26,758  INFO Counter:70 [PersonPrepareForSim] handled person # 1024
2024-12-19T00:19:26,758  INFO Counter:70 [PersonPrepareForSim] handled person # 2048
2024-12-19T00:19:26,759  INFO Counter:70 [PersonPrepareForSim] handled person # 4096
2024-12-19T00:19:26,759  INFO Counter:70 [PersonPrepareForSim] handled person # 8192
2024-12-19T00:19:26,760  INFO Counter:70 [PersonPrepareForSim] handled person # 16384
2024-12-19T00:19:26,761  INFO Counter:70 [PersonPrepareForSim] handled person # 32768
2024-12-19T00:19:26,764  INFO Counter:70 [PersonPrepareForSim] handled person # 65536
2024-12-19T00:19:26,770  INFO Counter:70 [PersonPrepareForSim] handled person # 131072
2024-12-19T00:19:26,781  INFO Counter:70 [PersonPrepareForSim] handled person # 262144
2024-12-19T00:19:26,803  INFO Counter:70 [PersonPrepareForSim] handled person # 524288
2024-12-19T00:19:26,852  INFO Counter:75 [PersonPrepareForSim] handled person # 873965
2024-12-19T00:19:26,874  INFO MobsimListenerManager:50 calling addQueueSimulationListener
2024-12-19T00:19:26,874  INFO MobsimListenerManager:54   assigned class org.matsim.core.mobsim.framework.listeners.MobsimListener to interface org.matsim.core.mobsim.framework.listeners.MobsimAfterSimStepListener
2024-12-19T00:19:26,875  INFO MobsimListenerManager:54   assigned class org.matsim.core.mobsim.framework.listeners.MobsimListener to interface org.matsim.vis.snapshotwriters.SnapshotWriterManager
2024-12-19T00:19:26,875  INFO MobsimListenerManager:54   assigned class org.matsim.core.mobsim.framework.listeners.MobsimListener to interface org.matsim.core.mobsim.framework.listeners.MobsimListener
2024-12-19T00:19:26,875  INFO MobsimListenerManager:54   assigned class org.matsim.core.mobsim.framework.listeners.MobsimListener to interface org.matsim.core.mobsim.framework.listeners.MobsimInitializedListener
2024-12-19T00:19:26,875  INFO MobsimListenerManager:54   assigned class org.matsim.core.mobsim.framework.listeners.MobsimListener to interface org.matsim.core.mobsim.framework.listeners.MobsimBeforeCleanupListener
2024-12-19T00:19:26,876  INFO QSimProvider:131 Added MobsimEngine class org.matsim.core.mobsim.qsim.ActivityEngineDefaultImpl
2024-12-19T00:19:26,876  INFO QSimProvider:137 Added Activityhandler class org.matsim.core.mobsim.qsim.ActivityEngineDefaultImpl
2024-12-19T00:19:26,957  INFO QSimProvider:143 Added DepartureHandler class org.matsim.core.mobsim.qsim.qnetsimengine.VehicularDepartureHandler
2024-12-19T00:19:26,957  INFO QSimProvider:131 Added MobsimEngine class org.matsim.core.mobsim.qsim.qnetsimengine.QNetsimEngineWithThreadpool
2024-12-19T00:19:26,957  INFO QSimProvider:131 Added MobsimEngine class org.matsim.core.mobsim.qsim.DefaultTeleportationEngine
2024-12-19T00:19:26,958  INFO QSimProvider:143 Added DepartureHandler class org.matsim.core.mobsim.qsim.DefaultTeleportationEngine
2024-12-19T00:19:26,958  INFO QSimProvider:149 Added AgentSource class org.matsim.core.mobsim.qsim.agents.PopulationAgentSource
2024-12-19T00:19:26,958  INFO MobsimListenerManager:50 calling addQueueSimulationListener
2024-12-19T00:19:26,958  INFO MobsimListenerManager:54   assigned class org.matsim.core.mobsim.framework.listeners.MobsimListener to interface org.matsim.core.mobsim.framework.listeners.MobsimBeforeSimStepListener
2024-12-19T00:19:26,958  INFO MobsimListenerManager:54   assigned class org.matsim.core.mobsim.framework.listeners.MobsimListener to interface org.matsim.core.mobsim.framework.listeners.MobsimListener
2024-12-19T00:19:26,958  INFO MobsimListenerManager:54   assigned class org.matsim.core.mobsim.framework.listeners.MobsimListener to interface org.matsim.core.mobsim.qsim.messagequeueengine.MessageQueueEngine
2024-12-19T00:19:26,958  INFO QSimProvider:155 Added MobsimListener class org.matsim.core.mobsim.qsim.messagequeueengine.MessageQueueEngine
2024-12-19T00:19:27,649  INFO AbstractQNetsimEngine:426 Assigned 27759 nodes and 64052 links to QSimEngineRunner #0
2024-12-19T00:19:31,418  INFO AbstractQNetsimEngine:364 SIMULATION (QNetsimEngine) AT 08:00:00 : #links=0 #nodes=0
2024-12-19T00:19:31,418  INFO QSim:566 SIMULATION (NEW QSim) AT 08:00:00 : #Veh=0 lost=0 simT=0.0s realT=4s; (s/r): 0.0
2024-12-19T00:19:33,394  INFO AbstractController$9:237 ### ITERATION 1 fires after mobsim event
2024-12-19T00:19:33,394  INFO ControlerListenerManagerImpl:269 calling notifyAfterMobsim on org.matsim.analysis.LegTimesControlerListener with priority 0.0
2024-12-19T00:19:33,394  INFO Gbl:196 Thread performance: Thread=class org.matsim.core.events.SimStepParallelEventsManagerImpl$ProcessEventsRunnable0  cpu-time=4.282092002sec
2024-12-19T00:19:33,395  INFO LegTimesControlerListener:51 [1] average trip (probably: leg) duration is: 0 seconds = 00:00:00
2024-12-19T00:19:33,395  INFO ControlerListenerManagerImpl:269 calling notifyAfterMobsim on org.matsim.core.events.MobsimScopeEventHandling with priority 0.0
2024-12-19T00:19:33,396  INFO ControlerListenerManagerImpl:269 calling notifyAfterMobsim on org.matsim.core.scoring.EventsToActivities$1 with priority 0.0
2024-12-19T00:19:33,848  INFO ControlerListenerManagerImpl:272 [it.1] all ControlerAfterMobsimListeners called.
2024-12-19T00:19:33,849  INFO AbstractController$4:162 ### ITERATION 1 fires scoring event
2024-12-19T00:19:33,849  INFO ControlerListenerManagerImpl:197 calling notifyScoring on org.matsim.core.scoring.PlansScoringImpl with priority 0.0
2024-12-19T00:19:34,160  INFO NewScoreAssignerImpl:58 it: 1 msaStart: null
2024-12-19T00:19:34,375  INFO ControlerListenerManagerImpl:209 [it.1] all ControlerScoringListeners called.
2024-12-19T00:19:34,376  INFO AbstractController$5:170 ### ITERATION 1 fires iteration end event
2024-12-19T00:19:34,376  INFO ControlerListenerManagerImpl:172 calling notifyIterationEnds on org.matsim.core.controler.corelisteners.EventsHandlingImpl with priority 0.0
2024-12-19T00:19:34,376  INFO EventsManagerImpl:159 removing Event-Handler: org.matsim.core.events.algorithms.EventWriterXML
2024-12-19T00:19:34,376  INFO EventsManagerImpl:159 removing Event-Handler: org.matsim.core.events.algorithms.EventWriterXML
2024-12-19T00:19:34,377  INFO ControlerListenerManagerImpl:172 calling notifyIterationEnds on org.matsim.core.scoring.PlansScoringImpl with priority 0.0
2024-12-19T00:19:34,566  INFO ControlerListenerManagerImpl:180 calling notifyIterationEnds on org.matsim.counts.CountsControlerListener with priority 0.0
2024-12-19T00:19:34,566  INFO ControlerListenerManagerImpl:180 calling notifyIterationEnds on org.matsim.analysis.ModeStatsControlerListener with priority 0.0
2024-12-19T00:19:34,712  INFO ModeStatsControlerListener:133 Mode shares over all 0.0 trips found. MainModeIdentifier: class org.matsim.core.router.DefaultAnalysisMainModeIdentifier
2024-12-19T00:19:34,791  INFO ControlerListenerManagerImpl:180 calling notifyIterationEnds on org.matsim.analysis.ScoreStatsControlerListener with priority 0.0
2024-12-19T00:19:34,920  INFO ScoreStatsControlerListener:154 -- avg. score of the executed plan of each agent: 97.1962346729156
2024-12-19T00:19:34,920  INFO ScoreStatsControlerListener:155 -- avg. score of the worst plan of each agent: 97.1962346729156
2024-12-19T00:19:34,920  INFO ScoreStatsControlerListener:156 -- avg. of the avg. plan score per agent: 97.1962346729156
2024-12-19T00:19:34,920  INFO ScoreStatsControlerListener:157 -- avg. score of the best plan of each agent: 97.1962346729156
2024-12-19T00:19:34,959  INFO ControlerListenerManagerImpl:180 calling notifyIterationEnds on org.matsim.analysis.IterationTravelStatsControlerListener with priority 0.0
2024-12-19T00:19:35,138  INFO TravelDistanceStats:115 -- average leg distance per plan (executed plans only): 0.0 meters
2024-12-19T00:19:35,138  INFO TravelDistanceStats:116 average leg distance per Person (executed plans only): 0.0 meters (statistic on all 0 legs which have a finite distance)
2024-12-19T00:19:35,139  INFO TravelDistanceStats:117 -- average trip distance per plan (executed plans only): 0.0 meters
2024-12-19T00:19:35,139  INFO TravelDistanceStats:118 average trip distance per Person (executed plans only): 0.0 meters (statistic on all 0 trips which have a finite distance)
2024-12-19T00:19:35,139  INFO TravelDistanceStats:119 (TravelDistanceStats takes an average over all legs where the simulation reports travelled (network) distances
2024-12-19T00:19:35,139  INFO TravelDistanceStats:120 (and teleported legs whose route contains a distance.)
2024-12-19T00:19:35,397  INFO ActivityWriter:39 Writing all Activities to activitiescsv
2024-12-19T00:19:39,617  INFO ActivityWriter:59 ...done
2024-12-19T00:19:39,617  INFO ControlerListenerManagerImpl:180 calling notifyIterationEnds on org.matsim.analysis.LegHistogramListener with priority 0.0
2024-12-19T00:19:39,619  INFO LegHistogramListener:73 number of legs:	0	100%
2024-12-19T00:19:39,668  INFO ControlerListenerManagerImpl:180 calling notifyIterationEnds on org.matsim.analysis.LinkStatsControlerListener with priority 0.0
2024-12-19T00:19:39,668  INFO ControlerListenerManagerImpl:184 [it.1] all ControlerIterationEndsListeners called.
2024-12-19T00:19:39,729  INFO AbstractController:184 ### ITERATION 1 ENDS
2024-12-19T00:19:39,729  INFO AbstractController:185 ###################################################
2024-12-19T00:19:39,729  INFO MatsimRuntimeModifications:80 S H U T D O W N   ---   start shutdown.
2024-12-19T00:19:39,730  INFO ControlerListenerManagerImpl:128 calling notifyShutdown on org.matsim.core.controler.corelisteners.EventsHandlingImpl with priority 0.0
2024-12-19T00:19:39,730  INFO ControlerListenerManagerImpl:128 calling notifyShutdown on org.matsim.core.controler.corelisteners.DumpDataAtEndImpl with priority 0.0
2024-12-19T00:19:40,099  INFO Counter:70 [PopulationWriter] dumped person # 1
2024-12-19T00:19:40,099  INFO Counter:70 [PopulationWriter] dumped person # 2
2024-12-19T00:19:40,099  INFO Counter:70 [PopulationWriter] dumped person # 4
2024-12-19T00:19:40,099  INFO Counter:70 [PopulationWriter] dumped person # 8
2024-12-19T00:19:40,099  INFO Counter:70 [PopulationWriter] dumped person # 16
2024-12-19T00:19:40,099  INFO Counter:70 [PopulationWriter] dumped person # 32
2024-12-19T00:19:40,099  INFO Counter:70 [PopulationWriter] dumped person # 64
2024-12-19T00:19:40,099  INFO Counter:70 [PopulationWriter] dumped person # 128
2024-12-19T00:19:40,099  INFO Counter:70 [PopulationWriter] dumped person # 256
2024-12-19T00:19:40,099  INFO Counter:70 [PopulationWriter] dumped person # 512
2024-12-19T00:19:40,099  INFO Counter:70 [ParallelPopulationWriterV6] dumped person # 1
2024-12-19T00:19:40,100  INFO Counter:70 [ParallelPopulationWriterV6] dumped person # 2
2024-12-19T00:19:40,100  INFO Counter:70 [ParallelPopulationWriterV6] dumped person # 4
2024-12-19T00:19:40,100  INFO Counter:70 [ParallelPopulationWriterV6] dumped person # 8
2024-12-19T00:19:40,100  INFO Counter:70 [ParallelPopulationWriterV6] dumped person # 16
2024-12-19T00:19:40,100  INFO Counter:70 [PopulationWriter] dumped person # 1024
2024-12-19T00:19:40,100  INFO Counter:70 [ParallelPopulationWriterV6] dumped person # 32
2024-12-19T00:19:40,101  INFO Counter:70 [ParallelPopulationWriterV6] dumped person # 64
2024-12-19T00:19:40,101  INFO Counter:70 [ParallelPopulationWriterV6] dumped person # 128
2024-12-19T00:19:40,102  INFO Counter:70 [ParallelPopulationWriterV6] dumped person # 256
2024-12-19T00:19:40,103  INFO Counter:70 [ParallelPopulationWriterV6] dumped person # 512
2024-12-19T00:19:40,106  INFO Counter:70 [ParallelPopulationWriterV6] dumped person # 1024
2024-12-19T00:19:40,107  INFO Counter:70 [PopulationWriter] dumped person # 2048
2024-12-19T00:19:40,113  INFO Counter:70 [ParallelPopulationWriterV6] dumped person # 2048
2024-12-19T00:19:40,118  INFO Counter:70 [PopulationWriter] dumped person # 4096
2024-12-19T00:19:40,124  INFO Counter:70 [ParallelPopulationWriterV6] dumped person # 4096
2024-12-19T00:19:40,141  INFO Counter:70 [PopulationWriter] dumped person # 8192
2024-12-19T00:19:40,147  INFO Counter:70 [ParallelPopulationWriterV6] dumped person # 8192
2024-12-19T00:19:40,186  INFO Counter:70 [PopulationWriter] dumped person # 16384
2024-12-19T00:19:40,191  INFO Counter:70 [ParallelPopulationWriterV6] dumped person # 16384
2024-12-19T00:19:40,272  INFO Counter:70 [PopulationWriter] dumped person # 32768
2024-12-19T00:19:40,278  INFO Counter:70 [ParallelPopulationWriterV6] dumped person # 32768
2024-12-19T00:19:40,437  INFO Counter:70 [PopulationWriter] dumped person # 65536
2024-12-19T00:19:40,442  INFO Counter:70 [ParallelPopulationWriterV6] dumped person # 65536
2024-12-19T00:19:40,770  INFO Counter:70 [PopulationWriter] dumped person # 131072
2024-12-19T00:19:40,776  INFO Counter:70 [ParallelPopulationWriterV6] dumped person # 131072
2024-12-19T00:19:41,509  INFO Counter:70 [PopulationWriter] dumped person # 262144
2024-12-19T00:19:41,515  INFO Counter:70 [ParallelPopulationWriterV6] dumped person # 262144
2024-12-19T00:19:43,004  INFO Counter:70 [PopulationWriter] dumped person # 524288
2024-12-19T00:19:43,010  INFO Counter:70 [ParallelPopulationWriterV6] dumped person # 524288
2024-12-19T00:19:45,025  INFO Counter:75 [ParallelPopulationWriterV6] dumped person # 873965
2024-12-19T00:19:45,025  INFO PopulationWriter:150 Population written to: scenarios/equil/output/run_20241219_001848/output_plans.xml.gz
2024-12-19T00:19:45,025  INFO Counter:75 [PopulationWriter] dumped person # 873965
2024-12-19T00:19:45,026  INFO NetworkWriter:70 Writing network to file: scenarios/equil/output/run_20241219_001848/output_network.xml.gz...
2024-12-19T00:19:45,674  INFO NetworkWriter:73 done.
2024-12-19T00:19:45,680  INFO Config:550 setting context to [file:/home/opc/matsim-example-project/]
2024-12-19T00:19:45,683  INFO Config:550 setting context to [file:/home/opc/matsim-example-project/]
2024-12-19T00:19:45,690  INFO Config:550 setting context to [file:/home/opc/matsim-example-project/]
2024-12-19T00:19:45,692  INFO Config:550 setting context to [file:/home/opc/matsim-example-project/]
2024-12-19T00:19:45,694  INFO Config:550 setting context to [file:/home/opc/matsim-example-project/]
2024-12-19T00:19:45,696  INFO Config:550 setting context to [file:/home/opc/matsim-example-project/]
2024-12-19T00:19:45,698  INFO Config:550 setting context to [file:/home/opc/matsim-example-project/]
2024-12-19T00:19:45,699  INFO Config:550 setting context to [file:/home/opc/matsim-example-project/]
2024-12-19T00:19:45,700  INFO Config:550 setting context to [file:/home/opc/matsim-example-project/]
2024-12-19T00:19:45,701  INFO Config:550 setting context to [file:/home/opc/matsim-example-project/]
2024-12-19T00:19:45,702  INFO Config:550 setting context to [file:/home/opc/matsim-example-project/]
2024-12-19T00:19:45,704  INFO Config:550 setting context to [file:/home/opc/matsim-example-project/]
2024-12-19T00:19:45,704  INFO Config:550 setting context to [file:/home/opc/matsim-example-project/]
2024-12-19T00:19:45,706  INFO Config:550 setting context to [file:/home/opc/matsim-example-project/]
2024-12-19T00:19:45,711  INFO Config:550 setting context to [file:/home/opc/matsim-example-project/]
2024-12-19T00:19:45,713  INFO Config:550 setting context to [file:/home/opc/matsim-example-project/]
2024-12-19T00:19:45,714  INFO Config:550 setting context to [file:/home/opc/matsim-example-project/]
2024-12-19T00:19:45,716  INFO Config:550 setting context to [file:/home/opc/matsim-example-project/]
2024-12-19T00:19:45,717  INFO Config:550 setting context to [file:/home/opc/matsim-example-project/]
2024-12-19T00:19:45,722  INFO Config:550 setting context to [file:/home/opc/matsim-example-project/]
2024-12-19T00:19:45,723  INFO Config:550 setting context to [file:/home/opc/matsim-example-project/]
2024-12-19T00:19:45,724  INFO Config:550 setting context to [file:/home/opc/matsim-example-project/]
2024-12-19T00:19:45,725  INFO Config:550 setting context to [file:/home/opc/matsim-example-project/]
2024-12-19T00:19:45,726  INFO Config:550 setting context to [file:/home/opc/matsim-example-project/]
2024-12-19T00:19:45,727  INFO Config:550 setting context to [file:/home/opc/matsim-example-project/]
2024-12-19T00:19:45,728  INFO Config:550 setting context to [file:/home/opc/matsim-example-project/]
2024-12-19T00:19:45,732  INFO MatsimVehicleWriter:49 about to write vehicles to: scenarios/equil/output/run_20241219_001848/output_vehicles.xml.gz
2024-12-19T00:19:45,732  INFO VehicleWriterV2:64 about to write vehicles to: scenarios/equil/output/run_20241219_001848/output_vehicles.xml.gz
2024-12-19T00:19:46,667  INFO VehicleUtils:395 adding scenario element for allvehicles container
2024-12-19T00:19:46,668  INFO HouseholdsWriterV10:66 about to write  households to: scenarios/equil/output/run_20241219_001848/output_households.xml.gz
2024-12-19T00:19:46,668  INFO Counter:75 [HouseholdsWriter] wrote household # 0
2024-12-19T00:19:46,672  INFO CountsWriterV2:45 Write Counts to scenarios/equil/output/run_20241219_001848/output_counts.xml.gz
2024-12-19T00:19:46,685  INFO ControlerListenerManagerImpl:135 calling notifyShutdown on org.matsim.analysis.ScoreStatsControlerListener with priority 0.0
2024-12-19T00:19:46,685  INFO ControlerListenerManagerImpl:135 calling notifyShutdown on org.matsim.analysis.IterationTravelStatsControlerListener with priority 0.0
2024-12-19T00:19:46,686  INFO PersonWriter:36 Writing all Persons to personscsv
2024-12-19T00:19:47,639  INFO PersonWriter:54 ...done
2024-12-19T00:19:47,639  INFO ControlerListenerManagerImpl:135 calling notifyShutdown on org.matsim.analysis.LinkStatsControlerListener with priority 0.0
2024-12-19T00:19:48,369  INFO ControlerListenerManagerImpl:138 all ControlerShutdownListeners called.
2024-12-19T00:19:48,369  INFO MatsimRuntimeModifications:103 S H U T D O W N   ---   shutdown completed.
2024-12-19T00:19:48,369  INFO OutputDirectoryLogging:172 closing the logfile, i.e. messages sent to the logger after this message are not written to the logfile.
