2024-12-19T10:00:56,067  INFO Gbl:64 JVM: 17.0.13; Red Hat, Inc.; mixed mode, sharing; 64-bit
2024-12-19T10:00:56,067  INFO Gbl:68 OS: Linux; 5.15.0-301.163.5.2.el8uek.x86_64; amd64
2024-12-19T10:00:56,068  INFO Gbl:71 CPU cores: 8
2024-12-19T10:00:56,070  INFO Gbl:72 max. Memory: 16008.0MB (16785604608B)
2024-12-19T10:00:56,070  INFO Gbl:114 MATSim-Build: ree04702ba7fc026b6bdf5a6ea52a749cf0c790e1 (2024-04-13 15:48:32)
2024-12-19T10:00:56,071  INFO Gbl:76 Command: org.matsim.project.RunMatsim
2024-12-19T10:00:56,075  INFO MemoryObserver:42 used RAM: 192 MB  free: 103 MB  total: 296 MB
2024-12-19T10:00:56,076  INFO ControlerListenerManagerImpl:112 calling notifyStartup on org.matsim.core.controler.ControlerDefaultsModule$1 with priority 0.0
2024-12-19T10:00:56,121  INFO ControlerListenerManagerImpl:112 calling notifyStartup on org.matsim.guice.DependencyGraphControlerListener with priority 0.0
2024-12-19T10:00:56,214  INFO ControlerListenerManagerImpl:112 calling notifyStartup on org.matsim.counts.CountsControlerListener with priority 0.0
2024-12-19T10:00:56,215  INFO ControlerListenerManagerImpl:112 calling notifyStartup on org.matsim.analysis.ModeStatsControlerListener with priority 0.0
2024-12-19T10:00:56,215  INFO ControlerListenerManagerImpl:112 calling notifyStartup on org.matsim.analysis.ScoreStatsControlerListener with priority 0.0
2024-12-19T10:00:56,215  INFO ControlerListenerManagerImpl:115 all ControlerStartupListeners called.
2024-12-19T10:00:56,216  INFO ControlerUtils:79 config dump before iterations start
2024-12-19T10:00:56,230  INFO ControlerUtils:83 

<?xml version="1.0" encoding="UTF-8"?>
<!DOCTYPE config SYSTEM "http://www.matsim.org/files/dtd/config_v2.dtd">
<config>
	<module name="changeMode" >
		<!-- Defines whether car availability is considered be considered or not. An agent has no car only if it has no license, or never access to a car. Default: true -->
		<param name="ignoreCarAvailability" value="true" />
		<!-- Defines the mode switch behavior. Possible values [fromAllModesToSpecifiedModes, fromSpecifiedModesToSpecifiedModes] Default: fromSpecifiedModesToSpecifiedModes. -->
		<param name="modeSwitchBehavior" value="fromSpecifiedModesToSpecifiedModes" />
		<!-- Defines all the modes available, including chain-based modes, seperated by commas -->
		<param name="modes" value="car,pt" />
	</module>
	<module name="controller" >
		<!-- Defines what should be done with the ITERS directory when a simulation finished successfully -->
		<param name="cleanItersAtEnd" value="keep" />
		<!-- Compression algorithm to use when writing out data to files. Possible values: [none, gzip, lz4, zst] -->
		<param name="compressionType" value="gzip" />
		<!-- Sets the interval in which graphs are generated. Default is 1. If set to 0, no graphs are generated. The generation of graphs usually takes a small amount of time that does not have any weight in big simulations, but add a significant overhead in smaller runs or in test cases where the graphical output is not even requested. -->
		<param name="createGraphsInterval" value="1" />
		<!-- Defines when the scoring functions for the population are created. Default=IterationStarts. Possible values: [IterationStarts, BeforeMobsim] -->
		<param name="createScoringFunctionType" value="IterationStarts" />
		<!-- true if at the end of a run, plans, network, config etc should be dumped to a file -->
		<param name="dumpDataAtEnd" value="true" />
		<!-- Default=false. If enabled, the router takes travel times needed for turning moves into account. Can only be used with Dijkstra routing. Cannot be used when TravelTimeCalculator.separateModes is enabled. -->
		<param name="enableLinkToLinkRouting" value="false" />
		<!-- Default=xml; Specifies the file format for writing events. Currently supported: [xml, pb, json]
		Multiple values can be specified separated by commas (','). -->
		<param name="eventsFileFormat" value="xml" />
		<!-- Default=0. First Iteration of a simulation. -->
		<param name="firstIteration" value="0" />
		<!-- Default=1000. Last Iteration of a simulation. -->
		<param name="lastIteration" value="10" />
		<!-- Defines the interval for printing memory usage to the log in [seconds]. Must be positive. Defaults to 60. -->
		<param name="memoryObserverInterval" value="60" />
		<!-- Defines which mobility simulation will be used. Currently supported: [qsim, JDEQSim, hermes]
		Depending on the chosen mobsim, you'll have to add additional config modules to configure the corresponding mobsim.
		For 'qsim', add a module 'qsim' to the config. -->
		<param name="mobsim" value="qsim" />
		<param name="outputDirectory" value="scenarios/equil/output/run_20241219_100053" />
		<!-- Possible values: failIfDirectoryExists,overwriteExistingFiles,deleteDirectoryIfExists -->
		<param name="overwriteFiles" value="deleteDirectoryIfExists" />
		<!-- The type of routing (least cost path) algorithm used, may have the values: [Dijkstra, AStarLandmarks, SpeedyALT] -->
		<param name="routingAlgorithmType" value="Dijkstra" />
		<!-- An identifier for the current run which is used as prefix for output files and mentioned in output xml files etc. -->
		<param name="runId" value="null" />
		<!-- Comma-separated list of visualizer output file formats. `transims' and `otfvis'. -->
		<param name="snapshotFormat" value="" />
		<!-- iterationNumber % writeEventsInterval == 0 defines in which iterations events are written to a file. `0' disables events writing completely. -->
		<param name="writeEventsInterval" value="50" />
		<!-- iterationNumber % writePlansInterval == 0 defines (hopefully) in which iterations plans are written to a file. `0' disables plans writing completely.  Some plans in early iterations are always written -->
		<param name="writePlansInterval" value="50" />
		<!-- iterationNumber % writeSnapshotsInterval == 0 defines in which iterations snapshots are written to a file. `0' disables snapshots writing completely -->
		<param name="writeSnapshotsInterval" value="1" />
		<!-- iterationNumber % writeEventsInterval == 0 defines in which iterations trips CSV are written to a file. `0' disables trips writing completely. -->
		<param name="writeTripsInterval" value="50" />
	</module>
	<module name="counts" >
		<!-- Transport modes that will be respected for the counts comparison. 'car' is default, which includes also bussed from the pt simulation module. Use this parameter in combination with 'filterModes' = true! -->
		<param name="analyzedModes" value="car" />
		<!-- Specifies over how many iterations the link volumes should be averaged that are used for the counts comparison. Use 1 or 0 to only use the link volumes of a single iteration. This values cannot be larger than the value specified for writeCountsInterval -->
		<param name="averageCountsOverIterations" value="5" />
		<!-- factor by which to re-scale the simulated values.  necessary when simulation runs with something different from 100%.  needs to be adapted manually -->
		<param name="countsScaleFactor" value="1.0" />
		<!-- distance to distanceFilterCenterNode to include counting stations. The unit of distance is the Euclidean distance implied by the coordinate system -->
		<param name="distanceFilter" value="null" />
		<!-- node id for center node of distance filter -->
		<param name="distanceFilterCenterNode" value="null" />
		<!-- If true, link counts from legs performed on modes not included in the 'analyzedModes' parameter are ignored. -->
		<param name="filterModes" value="false" />
		<!-- The Coordinates Reference System in which the coordinates are expressed in the input file. At import, the coordinates will be converted to the coordinate system defined in "global", and willbe converted back at export. If not specified, no conversion happens. -->
		<param name="inputCRS" value="null" />
		<!-- input file name to counts package -->
		<param name="inputCountsFile" value="null" />
		<!-- possible values: `html', `txt', `all' -->
		<param name="outputformat" value="txt" />
		<!-- Specifies how often the counts comparison should be calculated and written. -->
		<param name="writeCountsInterval" value="10" />
	</module>
	<module name="eventsManager" >
		<!-- Estimated number of events during mobsim run. An optional optimization hint for the framework. -->
		<param name="estimatedNumberOfEvents" value="null" />
		<!-- Size of the events Queue. Increase for very large scenarios -->
		<param name="eventsQueueSize" value="131072" />
		<!-- Number of threads for parallel events handler. _null_ means the framework decides by itself. 0 is currently not possible. -->
		<param name="numberOfThreads" value="null" />
		<!-- If enabled, each event handler is assigned to its own thread. Note that enabling this feature disabled the numberOfThreads option! This feature is still experimental! -->
		<param name="oneThreadPerHandler" value="false" />
		<!-- If enabled, it is ensured that all events that are created during a time step of the mobility simulation are processed before the next time step is simulated. E.g. neccessary when within-day replanning is used. -->
		<param name="synchronizeOnSimSteps" value="true" />
	</module>
	<module name="facilities" >
		<!-- This defines how facilities should be created. Possible values: none fromFile setInScenario onePerActivityLinkInPlansFile onePerActivityLinkInPlansFileExceptWhenCoordinatesAreGiven onePerActivityLocationInPlansFile  -->
		<param name="facilitiesSource" value="none" />
		<!-- A prefix to be used for auto-generated IDs. -->
		<param name="idPrefix" value="f_auto_" />
		<!-- The Coordinates Reference System in which the coordinates are expressed in the input file. At import, the coordinates will be converted to the coordinate system defined in "global", and willbe converted back at export. If not specified, no conversion happens. -->
		<param name="inputCRS" value="null" />
		<param name="inputFacilitiesFile" value="null" />
		<param name="inputFacilityAttributesFile" value="null" />
		<param name="insistingOnUsingDeprecatedFacilitiesAttributeFile" value="false" />
	</module>
	<module name="global" >
		<param name="coordinateSystem" value="EPSG:32610" />
		<param name="defaultDelimiter" value=";" />
		<param name="insistingOnDeprecatedConfigVersion" value="true" />
		<!-- "global" number of threads.  This number is used, e.g., for replanning, but NOT in QSim.  This can typically be set to as many cores as you have available, or possibly even slightly more. -->
		<param name="numberOfThreads" value="2" />
		<param name="randomSeed" value="4711" />
	</module>
	<module name="hermes" >
		<!-- Simulation End Time -->
		<param name="endTime" value="30:00:00" />
		<param name="flowCapacityFactor" value="1.0" />
		<param name="mainMode" value="car" />
		<param name="storageCapacityFactor" value="1.0" />
		<!-- time in seconds.  Time after which the frontmost vehicle on a link is called `stuck' if it does not move. Set to Integer.MAX_VALUE to disable this behavior -->
		<param name="stuckTime" value="10" />
		<!-- treats PT as deterministic. PT vehicles will run with a steady speed. Should be used with separate network layers for PT and other network modes. -->
		<param name="useDeterministicPt" value="false" />
	</module>
	<module name="households" >
		<param name="inputFile" value="null" />
		<param name="inputHouseholdAttributesFile" value="null" />
		<param name="insistingOnUsingDeprecatedHouseholdsAttributeFile" value="false" />
	</module>
	<module name="jdeqsim" >
		<param name="carSize" value="7.5" />
		<param name="endTime" value="undefined" />
		<param name="flowCapacityFactor" value="1.0" />
		<param name="gapTravelSpeed" value="15.0" />
		<param name="minimumInFlowCapacity" value="1800.0" />
		<param name="squeezeTime" value="1800.0" />
		<param name="storageCapacityFactor" value="1.0" />
	</module>
	<module name="linkStats" >
		<!-- Specifies over how many iterations the link volumes should be averaged that are used for the link statistics. Use 1 or 0 to only use the link volumes of a single iteration. This values cannot be larger than the value specified for writeLinkStatsInterval -->
		<param name="averageLinkStatsOverIterations" value="5" />
		<!-- Specifies how often the link stats should be calculated and written. Use 0 to disable the generation of link stats. -->
		<param name="writeLinkStatsInterval" value="50" />
	</module>
	<module name="network" >
		<!-- The Coordinates Reference System in which the coordinates are expressed in the input file. At import, the coordinates will be converted to the coordinate system defined in "global", and willbe converted back at export. If not specified, no conversion happens. -->
		<param name="inputCRS" value="null" />
		<param name="inputChangeEventsFile" value="null" />
		<param name="inputNetworkFile" value="output/sf_network.xml.gz" />
		<param name="laneDefinitionsFile" value="null" />
		<param name="timeVariantNetwork" value="false" />
	</module>
	<module name="planInheritance" >
		<!-- Specifies whether or not PlanInheritance Information should be tracked. -->
		<param name="enabled" value="false" />
	</module>
	<module name="plans" >
		<!-- String: minOfDurationAndEndTime tryEndTimeThenDuration endTimeOnly. Anything besides minOfDurationAndEndTime will internally use a different (simpler) version of the TimeAllocationMutator. -->
		<param name="activityDurationInterpretation" value="tryEndTimeThenDuration" />
		<!-- Possible values: reject,useMainModeIdentifier -->
		<param name="handlingOfPlansWithoutRoutingMode" value="useMainModeIdentifier" />
		<!-- The Coordinates Reference System in which the coordinates are expressed in the input file. At import, the coordinates will be converted to the coordinate system defined in "global", and willbe converted back at export. If not specified, no conversion happens. -->
		<param name="inputCRS" value="null" />
		<param name="inputPersonAttributesFile" value="null" />
		<param name="inputPlansFile" value="output/synthetic_population.xml" />
		<param name="insistingOnUsingDeprecatedPersonAttributeFile" value="false" />
		<!-- Defines how routes are stored in memory. Currently supported: LinkNetworkRoute, MediumCompressedNetworkRoute, HeavyCompressedNetworkRoute. -->
		<param name="networkRouteType" value="LinkNetworkRoute" />
		<!-- (not tested) will remove plan attributes that are presumably not used, such as activityStartTime. default=false. Use with Caution! -->
		<param name="removingUnnecessaryPlanAttributes" value="false" />
		<!-- Defines how departure times are interpreted in rerouting applications. If set to 'ignoreDelays', the departure time of a trip when routing along a plan will always be the nominal (plan-based) activity end time. If set to 'shiftActivityEndTimes', routing along a plan will accumulate travel times and shift activity end times if necessary -->
		<param name="tripDurationHandling" value="ignoreDelays" />
	</module>
	<module name="qsim" >
		<param name="endTime" value="30:00:00" />
		<!-- If set to withLinkAttributes snapshots will only be generated for links which include generateSnapshotForLink as attribute key. Default is no filtering. -->
		<param name="filterSnapshots" value="no" />
		<param name="flowCapacityFactor" value="1.0" />
		<!-- decides if waiting vehicles enter the network after or before the already driving vehicles were moved. Default: false -->
		<param name="insertingWaitingVehiclesBeforeDrivingVehicles" value="true" />
		<!-- If link dynamics is set as SeepageQ, set to false if all seep modes should perform seepage. Default is true (better option). -->
		<param name="isRestrictingSeepage" value="true" />
		<!-- If link dynamics is set as SeepageQ, set to true if seep mode do not consumes any space on the link. Default is false. -->
		<param name="isSeepModeStorageFree" value="false" />
		<!-- default: FIFO; options: FIFO PassingQ SeepageQ -->
		<param name="linkDynamics" value="FIFO" />
		<!-- The (initial) width of the links of the network. Use positive floating point values. This is used only for visualisation. -->
		<param name="linkWidth" value="30.0" />
		<!-- [comma-separated list] Defines which modes are congested modes. Technically, these are the modes that the departure handler of the netsimengine handles.  Effective cell size, effective lane width, flow capacity factor, and storage capacity factor need to be set with diligence.  Need to be vehicular modes to make sense. -->
		<param name="mainMode" value="car" />
		<!-- Shortens a link in the visualization, i.e. its start and end point are moved into towards the center. Does not affect traffic flow.  -->
		<param name="nodeOffset" value="0.0" />
		<!-- Number of threads used for the QSim.  Note that this setting is independent from the "global" threads setting.  In contrast to earlier versions, the non-parallel special version is no longer there. -->
		<param name="numberOfThreads" value="1" />
		<!-- Boolean. `true': stuck vehicles are removed, aborting the plan; `false': stuck vehicles are forced into the next link. `false' is probably the better choice. -->
		<param name="removeStuckVehicles" value="false" />
		<!-- If link dynamics is set as SeepageQ, set a seep mode. Default is bike. -->
		<param name="seepMode" value="bike" />
		<!-- Possible values: minOfEndtimeAndMobsimFinished,onlyUseEndtime -->
		<param name="simEndtimeInterpretation" value="null" />
		<!-- Options: maxOfStarttimeAndEarliestActivityEnd onlyUseStarttime  -->
		<param name="simStarttimeInterpretation" value="maxOfStarttimeAndEarliestActivityEnd" />
		<!-- snapshotStyle. One of: equiDist queue withHoles withHolesAndShowHoles kinematicWaves  -->
		<param name="snapshotStyle" value="queue" />
		<param name="snapshotperiod" value="00:30:00" />
		<param name="startTime" value="00:00:00" />
		<param name="storageCapacityFactor" value="1.0" />
		<!-- time in seconds.  Time after which the frontmost vehicle on a link is called `stuck' if it does not move. -->
		<param name="stuckTime" value="10.0" />
		<param name="timeStepSize" value="00:00:01" />
		<!-- options: queue withHoles kinematicWaves  -->
		<param name="trafficDynamics" value="queue" />
		<!-- Set this parameter to true if lanes should be used, false if not. -->
		<param name="useLanes" value="true" />
		<!-- If a route does not reference a vehicle, agents will use the vehicle with the same id as their own. -->
		<param name="usePersonIdForMissingVehicleId" value="false" />
		<!-- If false, the qsim accumulates fractional flows up to one flow unit in every time step.  If true, flows are updated only if an agent wants to enter the link or an agent is added to buffer. Default is true. -->
		<param name="usingFastCapacityUpdate" value="true" />
		<!-- Defines what happens if an agent wants to depart, but the specified vehicle is not available. One of: teleport wait exception  -->
		<param name="vehicleBehavior" value="teleport" />
		<!-- If vehicles should all be the same default vehicle, or come from the vehicles file, or something else.  Possible values:  defaultVehicle modeVehicleTypesFromVehiclesData fromVehiclesData -->
		<param name="vehiclesSource" value="defaultVehicle" />
	</module>
	<module name="replanning" >
		<!-- the external executable will be called with a config file as argument.  This is the pathname to a possible skeleton config, to which additional information will be added.  Can be null. -->
		<param name="ExternalExeConfigTemplate" value="null" />
		<!-- time out value (in seconds) after which matsim will consider the external strategy as failed -->
		<param name="ExternalExeTimeOut" value="3600" />
		<!-- root directory for temporary files generated by the external executable. Provided as a service; I don't think this is used by MATSim. -->
		<param name="ExternalExeTmpFileRootDir" value="null" />
		<!-- fraction of iterations where innovative strategies are switched off.  Something like 0.8 should be good.  E.g. if you run from iteration 400 to iteration 500, innovation is switched off at iteration 480 -->
		<param name="fractionOfIterationsToDisableInnovation" value="Infinity" />
		<!-- maximum number of plans per agent.  ``0'' means ``infinity''.  Currently (2010), ``5'' is a good number -->
		<param name="maxAgentPlanMemorySize" value="5" />
		<!-- strategyName of PlanSelector for plans removal.  Possible defaults: WorstPlanSelector SelectRandom SelectExpBetaForRemoval ChangeExpBetaForRemoval PathSizeLogitSelectorForRemoval . The current default, WorstPlanSelector is not a good choice from a discrete choice theoretical perspective. Alternatives, however, have not been systematically tested. kai, feb'12 -->
		<param name="planSelectorForRemoval" value="WorstPlanForRemovalSelectorWithConflicts" />
		<parameterset type="strategysettings" >
			<!-- iteration after which strategy will be disabled.  most useful for ``innovative'' strategies (new routes, new times, ...). Normally, better use fractionOfIterationsToDisableInnovation -->
			<param name="disableAfterIteration" value="-1" />
			<!-- path to external executable (if applicable) -->
			<param name="executionPath" value="null" />
			<!-- strategyName of strategy.  Possible default names: SelectRandom BestScore KeepLastSelected ChangeExpBeta SelectExpBeta SelectPathSizeLogit      (selectors), ReRouteTimeAllocationMutatorTimeAllocationMutator_ReRouteChangeSingleTripModeChangeTripModeSubtourModeChoice (innovative strategies). -->
			<param name="strategyName" value="BestScore" />
			<!-- subpopulation to which the strategy applies. "null" refers to the default population, that is, the set of persons for which no explicit subpopulation is defined (ie no subpopulation attribute) -->
			<param name="subpopulation" value="null" />
			<!-- weight of a strategy: for each agent, a strategy will be selected with a probability proportional to its weight -->
			<param name="weight" value="0.9" />
		</parameterset>
		<parameterset type="strategysettings" >
			<param name="disableAfterIteration" value="-1" />
			<param name="executionPath" value="null" />
			<param name="strategyName" value="ReRoute" />
			<param name="subpopulation" value="null" />
			<param name="weight" value="0.1" />
		</parameterset>
		<parameterset type="strategysettings" >
			<param name="disableAfterIteration" value="-1" />
			<param name="executionPath" value="null" />
			<param name="strategyName" value="TimeAllocationMutator" />
			<param name="subpopulation" value="null" />
			<param name="weight" value="0.1" />
		</parameterset>
	</module>
	<module name="replanningAnnealer" >
		<!-- Activate the scaling of replanning modules using an annealing approach rather than fixed rates. -->
		<param name="activateAnnealingModule" value="false" />
	</module>
	<module name="routing" >
		<!-- Defines how access and egress to main mode is simulated. Either of [none, accessEgressModeToLink, walkConstantTimeToLink, accessEgressModeToLinkPlusTimeConstant], Current default=none which means no access or egress trips are simulated. -->
		<param name="accessEgressType" value="none" />
		<!-- Some typical teleportation routing params are set by default, such as for walk and bike.  Setting this switch to "true" will clear them.  Note that this will also clear settings for helper modes such as for non_network_walk -->
		<param name="clearDefaultTeleportedModeParams" value="false" />
		<!-- All the modes for which the router is supposed to generate network routes (like car) -->
		<param name="networkModes" value="car" />
		<!-- strength of the randomness for the utility of money in routing under toll.  Leads to Pareto-optimal route with randomly drawn money-vs-other-attributes tradeoff. Technically the width parameter of a log-normal distribution. 3.0 seems to be a good value.  -->
		<param name="routingRandomness" value="3.0" />
		<parameterset type="teleportedModeParameters" >
			<param name="beelineDistanceFactor" value="1.3" />
			<param name="mode" value="bike" />
			<!-- Free-speed factor for a teleported mode. Travel time = teleportedModeFreespeedFactor * <freespeed car travel time>. Insert a line like this for every such mode. Please do not set teleportedModeFreespeedFactor as well as teleportedModeSpeed for the same mode, but if you do, +teleportedModeFreespeedFactor wins over teleportedModeSpeed. -->
			<param name="teleportedModeFreespeedFactor" value="null" />
			<!-- Speed for a teleported mode. Travel time = (<beeline distance> * beelineDistanceFactor) / teleportedModeSpeed. Insert a line like this for every such mode. -->
			<param name="teleportedModeSpeed" value="4.166666666666667" />
		</parameterset>
		<parameterset type="teleportedModeParameters" >
			<param name="beelineDistanceFactor" value="1.3" />
			<param name="mode" value="walk" />
			<param name="teleportedModeFreespeedFactor" value="null" />
			<param name="teleportedModeSpeed" value="0.8333333333333333" />
		</parameterset>
		<parameterset type="teleportedModeParameters" >
			<param name="beelineDistanceFactor" value="1.3" />
			<param name="mode" value="non_network_walk" />
			<param name="teleportedModeFreespeedFactor" value="null" />
			<param name="teleportedModeSpeed" value="0.8333333333333333" />
		</parameterset>
		<parameterset type="teleportedModeParameters" >
			<param name="beelineDistanceFactor" value="1.3" />
			<param name="mode" value="ride" />
			<param name="teleportedModeFreespeedFactor" value="1.0" />
			<param name="teleportedModeSpeed" value="null" />
		</parameterset>
		<parameterset type="teleportedModeParameters" >
			<param name="beelineDistanceFactor" value="1.3" />
			<param name="mode" value="pt" />
			<param name="teleportedModeFreespeedFactor" value="2.0" />
			<param name="teleportedModeSpeed" value="null" />
		</parameterset>
	</module>
	<module name="scoring" >
		<!-- logit model scale parameter. default: 1.  Has name and default value for historical reasons (see Bryan Raney's phd thesis). -->
		<param name="brainExpBeta" value="2.0" />
		<!-- fraction of iterations at which MSA score averaging is started. The matsim theory department suggests to use this together with switching off choice set innovation (where a similar switch exists), but it has not been tested yet. -->
		<param name="fractionOfIterationsToStartScoreMSA" value="null" />
		<!-- new_score = (1-learningRate)*old_score + learningRate * score_from_mobsim.  learning rates close to zero emulate score averaging, but slow down initial convergence -->
		<param name="learningRate" value="1.0" />
		<param name="pathSizeLogitBeta" value="1.0" />
		<!-- There used to be a plateau between duration=0 and duration=zeroUtilityDuration. This caused durations to evolve to zero once they were below zeroUtilityDuration, causing problems.  Only use this switch if you need to be backwards compatible with some old results.  (changed nov'13) -->
		<param name="usingOldScoringBelowZeroUtilityDuration" value="false" />
		<!-- write a plans file in each iteration directory which contains what each agent actually did, and the score it received. -->
		<param name="writeExperiencedPlans" value="false" />
		<parameterset type="scoringParameters" >
			<param name="earlyDeparture" value="-0.0" />
			<param name="lateArrival" value="-18.0" />
			<param name="marginalUtilityOfMoney" value="0.01" />
			<param name="performing" value="4.321" />
			<param name="subpopulation" value="null" />
			<param name="utilityOfLineSwitch" value="-1.0" />
			<param name="waiting" value="-0.0" />
			<param name="waitingPt" value="-4.0" />
			<parameterset type="activityParams" >
				<param name="activityType" value="dummy" />
				<param name="closingTime" value="undefined" />
				<param name="earliestEndTime" value="undefined" />
				<param name="latestStartTime" value="undefined" />
				<param name="minimalDuration" value="undefined" />
				<param name="openingTime" value="undefined" />
				<param name="priority" value="1.0" />
				<param name="scoringThisActivityAtAll" value="true" />
				<!-- typical duration of activity.  needs to be defined and non-zero.  in sec. -->
				<param name="typicalDuration" value="02:00:00" />
				<!-- method to compute score at typical duration.  Options: | uniform | relative | Use uniform for backwards compatibility (all activities same score; higher proba to drop long acts). -->
				<param name="typicalDurationScoreComputation" value="relative" />
			</parameterset>
			<parameterset type="activityParams" >
				<param name="activityType" value="car interaction" />
				<param name="closingTime" value="undefined" />
				<param name="earliestEndTime" value="undefined" />
				<param name="latestStartTime" value="undefined" />
				<param name="minimalDuration" value="undefined" />
				<param name="openingTime" value="undefined" />
				<param name="priority" value="1.0" />
				<param name="scoringThisActivityAtAll" value="false" />
				<param name="typicalDuration" value="undefined" />
				<param name="typicalDurationScoreComputation" value="relative" />
			</parameterset>
			<parameterset type="activityParams" >
				<param name="activityType" value="pt interaction" />
				<param name="closingTime" value="undefined" />
				<param name="earliestEndTime" value="undefined" />
				<param name="latestStartTime" value="undefined" />
				<param name="minimalDuration" value="undefined" />
				<param name="openingTime" value="undefined" />
				<param name="priority" value="1.0" />
				<param name="scoringThisActivityAtAll" value="false" />
				<param name="typicalDuration" value="undefined" />
				<param name="typicalDurationScoreComputation" value="relative" />
			</parameterset>
			<parameterset type="activityParams" >
				<param name="activityType" value="bike interaction" />
				<param name="closingTime" value="undefined" />
				<param name="earliestEndTime" value="undefined" />
				<param name="latestStartTime" value="undefined" />
				<param name="minimalDuration" value="undefined" />
				<param name="openingTime" value="undefined" />
				<param name="priority" value="1.0" />
				<param name="scoringThisActivityAtAll" value="false" />
				<param name="typicalDuration" value="undefined" />
				<param name="typicalDurationScoreComputation" value="relative" />
			</parameterset>
			<parameterset type="activityParams" >
				<param name="activityType" value="drt interaction" />
				<param name="closingTime" value="undefined" />
				<param name="earliestEndTime" value="undefined" />
				<param name="latestStartTime" value="undefined" />
				<param name="minimalDuration" value="undefined" />
				<param name="openingTime" value="undefined" />
				<param name="priority" value="1.0" />
				<param name="scoringThisActivityAtAll" value="false" />
				<param name="typicalDuration" value="undefined" />
				<param name="typicalDurationScoreComputation" value="relative" />
			</parameterset>
			<parameterset type="activityParams" >
				<param name="activityType" value="taxi interaction" />
				<param name="closingTime" value="undefined" />
				<param name="earliestEndTime" value="undefined" />
				<param name="latestStartTime" value="undefined" />
				<param name="minimalDuration" value="undefined" />
				<param name="openingTime" value="undefined" />
				<param name="priority" value="1.0" />
				<param name="scoringThisActivityAtAll" value="false" />
				<param name="typicalDuration" value="undefined" />
				<param name="typicalDurationScoreComputation" value="relative" />
			</parameterset>
			<parameterset type="activityParams" >
				<param name="activityType" value="other interaction" />
				<param name="closingTime" value="undefined" />
				<param name="earliestEndTime" value="undefined" />
				<param name="latestStartTime" value="undefined" />
				<param name="minimalDuration" value="undefined" />
				<param name="openingTime" value="undefined" />
				<param name="priority" value="1.0" />
				<param name="scoringThisActivityAtAll" value="false" />
				<param name="typicalDuration" value="undefined" />
				<param name="typicalDurationScoreComputation" value="relative" />
			</parameterset>
			<parameterset type="activityParams" >
				<param name="activityType" value="walk interaction" />
				<param name="closingTime" value="undefined" />
				<param name="earliestEndTime" value="undefined" />
				<param name="latestStartTime" value="undefined" />
				<param name="minimalDuration" value="undefined" />
				<param name="openingTime" value="undefined" />
				<param name="priority" value="1.0" />
				<param name="scoringThisActivityAtAll" value="false" />
				<param name="typicalDuration" value="undefined" />
				<param name="typicalDurationScoreComputation" value="relative" />
			</parameterset>
			<parameterset type="activityParams" >
				<param name="activityType" value="home" />
				<param name="closingTime" value="undefined" />
				<param name="earliestEndTime" value="undefined" />
				<param name="latestStartTime" value="undefined" />
				<param name="minimalDuration" value="08:00:00" />
				<param name="openingTime" value="undefined" />
				<param name="priority" value="1.0" />
				<param name="scoringThisActivityAtAll" value="true" />
				<param name="typicalDuration" value="12:00:00" />
				<param name="typicalDurationScoreComputation" value="relative" />
			</parameterset>
			<parameterset type="activityParams" >
				<param name="activityType" value="work" />
				<param name="closingTime" value="18:00:00" />
				<param name="earliestEndTime" value="undefined" />
				<param name="latestStartTime" value="09:00:00" />
				<param name="minimalDuration" value="06:00:00" />
				<param name="openingTime" value="07:00:00" />
				<param name="priority" value="1.0" />
				<param name="scoringThisActivityAtAll" value="true" />
				<param name="typicalDuration" value="08:00:00" />
				<param name="typicalDurationScoreComputation" value="relative" />
			</parameterset>
			<parameterset type="activityParams" >
				<param name="activityType" value="ride interaction" />
				<param name="closingTime" value="undefined" />
				<param name="earliestEndTime" value="undefined" />
				<param name="latestStartTime" value="undefined" />
				<param name="minimalDuration" value="undefined" />
				<param name="openingTime" value="undefined" />
				<param name="priority" value="1.0" />
				<param name="scoringThisActivityAtAll" value="false" />
				<param name="typicalDuration" value="undefined" />
				<param name="typicalDurationScoreComputation" value="relative" />
			</parameterset>
			<parameterset type="modeParams" >
				<!-- [utils] alternative-specific constant.  Normally per trip, but that is probably buggy for multi-leg trips. -->
				<param name="constant" value="0.0" />
				<!-- [unit_of_money/day] Fixed cost of mode, per day. -->
				<param name="dailyMonetaryConstant" value="1.0" />
				<!-- [utils] daily utility constant. default=0 to be backwards compatible -->
				<param name="dailyUtilityConstant" value="0.0" />
				<!-- [utils/m] utility of traveling (e.g. walking or driving) per m, normally negative.  this is on top of the time (dis)utility. -->
				<param name="marginalUtilityOfDistance_util_m" value="-0.02" />
				<!-- [utils/hr] additional marginal utility of traveling.  normally negative.  this comes on top of the opportunity cost of time -->
				<param name="marginalUtilityOfTraveling_util_hr" value="-6.0" />
				<param name="mode" value="car" />
				<!-- [unit_of_money/m] conversion of distance into money. Normally negative. -->
				<param name="monetaryDistanceRate" value="-1.0E-4" />
			</parameterset>
			<parameterset type="modeParams" >
				<param name="constant" value="0.0" />
				<param name="dailyMonetaryConstant" value="0.0" />
				<param name="dailyUtilityConstant" value="0.0" />
				<param name="marginalUtilityOfDistance_util_m" value="-0.05" />
				<param name="marginalUtilityOfTraveling_util_hr" value="-6.0" />
				<param name="mode" value="walk" />
				<param name="monetaryDistanceRate" value="-0.005" />
			</parameterset>
			<parameterset type="modeParams" >
				<param name="constant" value="0.0" />
				<param name="dailyMonetaryConstant" value="0.0" />
				<param name="dailyUtilityConstant" value="0.0" />
				<param name="marginalUtilityOfDistance_util_m" value="-0.025" />
				<param name="marginalUtilityOfTraveling_util_hr" value="-3.0" />
				<param name="mode" value="bike" />
				<param name="monetaryDistanceRate" value="0.0015" />
			</parameterset>
			<parameterset type="modeParams" >
				<param name="constant" value="0.0" />
				<param name="dailyMonetaryConstant" value="2.0" />
				<param name="dailyUtilityConstant" value="0.0" />
				<param name="marginalUtilityOfDistance_util_m" value="-0.0025" />
				<param name="marginalUtilityOfTraveling_util_hr" value="-6.0" />
				<param name="mode" value="ride" />
				<param name="monetaryDistanceRate" value="-1.0E-4" />
			</parameterset>
			<parameterset type="modeParams" >
				<param name="constant" value="0.0" />
				<param name="dailyMonetaryConstant" value="0.0" />
				<param name="dailyUtilityConstant" value="0.0" />
				<param name="marginalUtilityOfDistance_util_m" value="-0.0025" />
				<param name="marginalUtilityOfTraveling_util_hr" value="-4.0" />
				<param name="mode" value="pt" />
				<param name="monetaryDistanceRate" value="-1.0E-4" />
			</parameterset>
			<parameterset type="modeParams" >
				<param name="constant" value="0.0" />
				<param name="dailyMonetaryConstant" value="1.0" />
				<param name="dailyUtilityConstant" value="0.0" />
				<param name="marginalUtilityOfDistance_util_m" value="-0.02" />
				<param name="marginalUtilityOfTraveling_util_hr" value="-2.0" />
				<param name="mode" value="other" />
				<param name="monetaryDistanceRate" value="-1.0E-4" />
			</parameterset>
		</parameterset>
	</module>
	<module name="subtourModeChoice" >
		<!-- Only for backwards compatibility.  Defines if only trips from modes list should change mode, or all trips.  Options: fromAllModesToSpecifiedModes fromSpecifiedModesToSpecifiedModes betweenAllAndFewerConstraints  -->
		<param name="behavior" value="fromSpecifiedModesToSpecifiedModes" />
		<!-- Defines the chain-based modes, seperated by commas -->
		<param name="chainBasedModes" value="car,bike" />
		<!-- Defines whether car availability must be considered or not. A agent has no car only if it has no license, or never access to a car -->
		<param name="considerCarAvailability" value="false" />
		<!-- If greater than 0, subtours will also consider coordinates to be at the same location when smaller than set distance. -->
		<param name="coordDistance" value="0.0" />
		<!-- Defines all the modes available, including chain-based modes, seperated by commas -->
		<param name="modes" value="car,pt,bike,walk" />
		<!-- Defines the probability of changing a single trip for a unchained mode instead of subtour. -->
		<param name="probaForRandomSingleTripMode" value="0.0" />
	</module>
	<module name="timeAllocationMutator" >
		<!-- Latest Activity End Time. Default = 24:00:00 -->
		<param name="latestActivityEndTime" value="86400.0" />
		<!-- Mutates times only around the initially defined end times. -->
		<param name="mutateAroundInitialEndTimeOnly" value="false" />
		<!-- Default:true; Defines whether time mutation changes an activity's duration. -->
		<param name="mutationAffectsDuration" value="true" />
		<!-- Default:1800.0; Defines how many seconds a time mutation can maximally shift a time. -->
		<param name="mutationRange" value="1800.0" />
		<!-- Mutation Range Step, default = 1 second -->
		<param name="mutationRangeStep" value="1.0" />
	</module>
	<module name="transit" >
		<!-- The Coordinates Reference System in which the coordinates are expressed in the input file. At import, the coordinates will be converted to the coordinate system defined in "global", and willbe converted back at export. If not specified, no conversion happens. -->
		<param name="inputScheduleCRS" value="null" />
		<param name="insistingOnUsingDeprecatedAttributeFiles" value="false" />
		<!-- The type of transit routing algorithm used, may have the values: [DijkstraBased, SwissRailRaptor] -->
		<param name="routingAlgorithmType" value="SwissRailRaptor" />
		<!-- Optional input file containing additional attributes for transit lines, stored as ObjectAttributes. -->
		<param name="transitLinesAttributesFile" value="null" />
		<!-- Comma-separated list of transportation modes that are handled as transit. Defaults to 'pt'. -->
		<param name="transitModes" value="pt" />
		<!-- Input file containing the transit schedule to be simulated. -->
		<param name="transitScheduleFile" value="null" />
		<!-- Optional input file containing additional attributes for transit stop facilities, stored as ObjectAttributes. -->
		<param name="transitStopsAttributesFile" value="null" />
		<!-- Set this parameter to true if transit should be simulated, false if not. -->
		<param name="useTransit" value="false" />
		<param name="usingTransitInMobsim" value="true" />
		<!-- Input file containing the vehicles used by the departures in the transit schedule. -->
		<param name="vehiclesFile" value="null" />
	</module>
	<module name="transitRouter" >
		<!-- additional time the router allocates when a line switch happens. Can be interpreted as a 'safety' time that agents need to safely transfer from one line to another -->
		<param name="additionalTransferTime" value="0.0" />
		<!-- Factor with which direct walk generalized cost is multiplied before it is compared to the pt generalized cost.  Set to a very high value to reduce direct walk results. -->
		<param name="directWalkFactor" value="1.0" />
		<!-- step size to increase searchRadius if no stops are found -->
		<param name="extensionRadius" value="200.0" />
		<!-- maximum beeline distance between stops that agents could transfer to by walking -->
		<param name="maxBeelineWalkConnectionDistance" value="100.0" />
		<!-- the radius in which stop locations are searched, given a start or target coordinate -->
		<param name="searchRadius" value="1000.0" />
	</module>
	<module name="travelTimeCalculator" >
		<!-- (only for backwards compatibility; only used if separateModes==false && + filterModes==true)  Transport modes that will be respected by the travel time collector. 'car' is default which includes also buses from the pt simulation module. -->
		<param name="analyzedModes" value="car" />
		<param name="calculateLinkToLinkTravelTimes" value="false" />
		<param name="calculateLinkTravelTimes" value="true" />
		<!-- (only for backwards compatiblity; only used if separateModes==false)  Only modes included in analyzedModes are included. -->
		<param name="filterModes" value="false" />
		<!-- The lenght (in sec) of the time period that is splited into time bins; an additional time bin is created to aggregate all travel times collected after maxTime -->
		<param name="maxTime" value="108000" />
		<!-- (only for backwards compatibility) If false, link travel times are measured and aggregated over all vehicles using the link. -->
		<param name="separateModes" value="true" />
		<!-- How to deal with congested time bins that have no link entry events. `optimistic' assumes free speed (too optimistic); 'experimental_LastMile' is experimental and probably too pessimistic. -->
		<param name="travelTimeAggregator" value="optimistic" />
		<!-- The size of the time bin (in sec) into which the link travel times are aggregated for the router -->
		<param name="travelTimeBinSize" value="900.0" />
		<!-- How to deal with link entry times at different positions during the time bin. Currently supported: average, linearinterpolation -->
		<param name="travelTimeGetter" value="average" />
	</module>
	<module name="vehicles" >
		<param name="vehiclesFile" value="null" />
	</module>
	<module name="vspExperimental" >
		<!-- (do not use except of you have to) There was a problem with pt interaction scoring.  Some people solved it by overwriting the parameters of the pt interaction activity type.  Doing this now throws an Exception.  If you still insist on doing this, set the following to true. -->
		<param name="isAbleToOverwritePtInteractionParams" value="false" />
		<param name="isGeneratingBoardingDeniedEvent" value="false" />
		<!-- if an approximation of the opportunity cost of time is included into the radius calculation for location choice.`true' will be faster, but it is an approximation.  Default is `true'; `false' is available for backwards compatibility. -->
		<param name="isUsingOpportunityCostOfTimeForLocationChoice" value="true" />
		<param name="logitScaleParamForPlansRemoval" value="1.0" />
		<!-- Options: | ignore | info | warn | abort | .  When violating VSP defaults, this results in nothing, logfile infos, logfile warnings, or aborts.  Members of VSP should use `abort' or talk to kai. -->
		<param name="vspDefaultsCheckingLevel" value="ignore" />
		<!-- if true then writes output_events in output directory.  default is `false'. Will only work when lastIteration is multiple of events writing interval -->
		<param name="writingOutputEvents" value="true" />
	</module>

</config>

2024-12-19T10:00:56,233  INFO ControlerUtils:84 Complete config dump done.
2024-12-19T10:00:56,233  INFO ControlerUtils:85 Checking consistency of config...
2024-12-19T10:00:56,233  INFO VspConfigConsistencyCheckerImpl:68 NOT running vsp config consistency check because vsp defaults checking level is set to IGNORE
2024-12-19T10:00:56,238  WARN ConfigConsistencyCheckerImpl:167 Using lanes without enabling linktolinkrouting might not lead to expected simulation results
2024-12-19T10:00:56,238  INFO ControlerUtils:87 Checking consistency of config done.
2024-12-19T10:00:56,238  INFO PrepareForSimImpl:128 Network seems to be multimodal. Create car-only network which is handed over to PersonPrepareForSim.
2024-12-19T10:00:56,239  INFO NetworkImpl:165  node # 1
2024-12-19T10:00:56,240  INFO NetworkImpl:165  node # 4
2024-12-19T10:00:56,240  INFO NetworkImpl:165  node # 16
2024-12-19T10:00:56,240  INFO NetworkImpl:165  node # 64
2024-12-19T10:00:56,240  INFO NetworkImpl:165  node # 256
2024-12-19T10:00:56,242  INFO NetworkImpl:165  node # 1024
2024-12-19T10:00:56,243  INFO NetworkImpl:165  node # 4096
2024-12-19T10:00:56,249  INFO NetworkImpl:165  node # 16384
2024-12-19T10:00:56,253  INFO NetworkImpl:161  link # 1
2024-12-19T10:00:56,254  INFO NetworkImpl:161  link # 4
2024-12-19T10:00:56,254  INFO NetworkImpl:161  link # 16
2024-12-19T10:00:56,255  INFO NetworkImpl:161  link # 64
2024-12-19T10:00:56,257  INFO NetworkImpl:161  link # 256
2024-12-19T10:00:56,262  INFO NetworkImpl:161  link # 1024
2024-12-19T10:00:56,275  INFO NetworkImpl:161  link # 4096
2024-12-19T10:00:56,311  INFO NetworkImpl:161  link # 16384
2024-12-19T10:00:56,446  INFO Counter:70 [VehiclesImpl] added vehicle # 1
2024-12-19T10:00:56,446  INFO Counter:70 [VehiclesImpl] added vehicle # 2
2024-12-19T10:00:56,446  INFO Counter:70 [VehiclesImpl] added vehicle # 4
2024-12-19T10:00:56,446  INFO Counter:70 [VehiclesImpl] added vehicle # 8
2024-12-19T10:00:56,446  INFO Counter:70 [VehiclesImpl] added vehicle # 16
2024-12-19T10:00:56,447  INFO Counter:70 [VehiclesImpl] added vehicle # 32
2024-12-19T10:00:56,447  INFO Counter:70 [VehiclesImpl] added vehicle # 64
2024-12-19T10:00:56,448  INFO Counter:70 [VehiclesImpl] added vehicle # 128
2024-12-19T10:00:56,450  INFO Counter:70 [VehiclesImpl] added vehicle # 256
2024-12-19T10:00:56,451  INFO Counter:70 [VehiclesImpl] added vehicle # 512
2024-12-19T10:00:56,454  INFO Counter:70 [VehiclesImpl] added vehicle # 1024
2024-12-19T10:00:56,456  INFO Counter:70 [VehiclesImpl] added vehicle # 2048
2024-12-19T10:00:56,462  INFO Counter:70 [VehiclesImpl] added vehicle # 4096
2024-12-19T10:00:56,473  INFO Counter:70 [VehiclesImpl] added vehicle # 8192
2024-12-19T10:00:56,527  INFO NetworkImpl:165  node # 1
2024-12-19T10:00:56,528  INFO NetworkImpl:165  node # 4
2024-12-19T10:00:56,528  INFO NetworkImpl:165  node # 16
2024-12-19T10:00:56,528  INFO NetworkImpl:165  node # 64
2024-12-19T10:00:56,528  INFO NetworkImpl:165  node # 256
2024-12-19T10:00:56,528  INFO NetworkImpl:165  node # 1024
2024-12-19T10:00:56,529  INFO NetworkImpl:165  node # 4096
2024-12-19T10:00:56,531  INFO NetworkImpl:165  node # 16384
2024-12-19T10:00:56,533  INFO NetworkImpl:161  link # 1
2024-12-19T10:00:56,533  INFO NetworkImpl:161  link # 4
2024-12-19T10:00:56,533  INFO NetworkImpl:161  link # 16
2024-12-19T10:00:56,533  INFO NetworkImpl:161  link # 64
2024-12-19T10:00:56,533  INFO NetworkImpl:161  link # 256
2024-12-19T10:00:56,534  INFO NetworkImpl:161  link # 1024
2024-12-19T10:00:56,538  INFO NetworkImpl:161  link # 4096
2024-12-19T10:00:56,553  INFO NetworkImpl:161  link # 16384
2024-12-19T10:00:56,626  INFO RandomizingTimeDistanceTravelDisutilityFactory:86  sigma: 3.0; resulting normalization: 0.011108996538242306
2024-12-19T10:00:56,651  INFO RandomizingTimeDistanceTravelDisutilityFactory:86  sigma: 3.0; resulting normalization: 0.011108996538242306
2024-12-19T10:00:56,674  INFO NetworkImpl:419 building QuadTree for nodes: xrange(540428.3306076776,560059.3435176038); yrange(4154892.814417933,4198158.509710974)
2024-12-19T10:00:56,727  INFO NetworkImpl:428 Building QuadTree took 0.065 seconds.
2024-12-19T10:00:56,761  INFO Counter:70 [PersonPrepareForSim] handled person # 1
2024-12-19T10:00:56,781  INFO Counter:70 [PersonPrepareForSim] handled person # 2
2024-12-19T10:00:56,797  INFO Counter:70 [PersonPrepareForSim] handled person # 4
2024-12-19T10:00:56,846  INFO Counter:70 [PersonPrepareForSim] handled person # 8
2024-12-19T10:00:57,051  INFO Counter:70 [PersonPrepareForSim] handled person # 16
2024-12-19T10:00:57,156  INFO Counter:70 [PersonPrepareForSim] handled person # 32
2024-12-19T10:00:57,516  INFO Counter:70 [PersonPrepareForSim] handled person # 64
2024-12-19T10:00:58,060  INFO Counter:70 [PersonPrepareForSim] handled person # 128
2024-12-19T10:00:59,284  INFO Counter:70 [PersonPrepareForSim] handled person # 256
2024-12-19T10:01:01,428  INFO Counter:70 [PersonPrepareForSim] handled person # 512
2024-12-19T10:01:04,790  INFO Counter:70 [PersonPrepareForSim] handled person # 1024
2024-12-19T10:01:11,871  INFO Counter:70 [PersonPrepareForSim] handled person # 2048
2024-12-19T10:01:27,202  INFO Counter:70 [PersonPrepareForSim] handled person # 4096
2024-12-19T10:01:56,076  INFO MemoryObserver:42 used RAM: 423 MB  free: 128 MB  total: 552 MB
2024-12-19T10:02:12,594  INFO Counter:70 [PersonPrepareForSim] handled person # 8192
2024-12-19T10:02:17,821  INFO Counter:75 [PersonPrepareForSim] handled person # 8744
2024-12-19T10:02:17,834  INFO AbstractController:136 ###################################################
2024-12-19T10:02:17,835  INFO AbstractController:137 ### ITERATION 0 BEGINS
2024-12-19T10:02:17,836  INFO ControlerListenerManagerImpl:156 calling notifyIterationStarts on org.matsim.analysis.LegHistogramListener with priority 0.0
2024-12-19T10:02:17,836  INFO ControlerListenerManagerImpl:156 calling notifyIterationStarts on org.matsim.analysis.LinkStatsControlerListener with priority 0.0
2024-12-19T10:02:17,836  INFO ControlerListenerManagerImpl:156 calling notifyIterationStarts on org.matsim.core.replanning.ReplanningContextImpl with priority 0.0
2024-12-19T10:02:17,836  INFO ControlerListenerManagerImpl:156 calling notifyIterationStarts on org.matsim.core.scoring.ScoringFunctionsForPopulation$$Lambda$241/0x00007fd0ec352e70 with priority 0.0
2024-12-19T10:02:17,860  INFO ControlerListenerManagerImpl:156 calling notifyIterationStarts on org.matsim.core.scoring.ExperiencedPlansServiceImpl$1 with priority 0.0
2024-12-19T10:02:17,862  INFO ControlerListenerManagerImpl:159 [it.0] all ControlerIterationStartsListeners called.
2024-12-19T10:02:17,863  INFO ControlerListenerManagerImpl:242 calling notifyBeforeMobsim on org.matsim.core.controler.corelisteners.EventsHandlingImpl with priority 0.0
2024-12-19T10:02:17,863  INFO EventsManagerImpl:168 resetting Event-Handlers
2024-12-19T10:02:17,863  INFO EventsManagerImpl:175   org.matsim.core.trafficmonitoring.TravelTimeCalculator
2024-12-19T10:02:17,879  INFO EventsManagerImpl:175   org.matsim.analysis.VolumesAnalyzer
2024-12-19T10:02:17,879  INFO EventsManagerImpl:175   org.matsim.core.scoring.ScoringFunctionsForPopulation
2024-12-19T10:02:17,880  INFO EventsManagerImpl:175   org.matsim.analysis.LegHistogram
2024-12-19T10:02:17,880  INFO EventsManagerImpl:175   org.matsim.analysis.CalcLegTimes
2024-12-19T10:02:17,882  INFO EventsManagerImpl:138 adding Event-Handler: org.matsim.core.events.algorithms.EventWriterXML
2024-12-19T10:02:17,882  INFO EventsManagerImpl:144   org.matsim.core.events.algorithms.EventWriter
2024-12-19T10:02:17,882  INFO EventsManagerImpl:144   org.matsim.core.events.handler.BasicEventHandler
2024-12-19T10:02:17,882  INFO EventsManagerImpl:205     > org.matsim.api.core.v01.events.Event
2024-12-19T10:02:17,882  INFO EventsManagerImpl:154 
2024-12-19T10:02:17,882  INFO EventsManagerImpl:138 adding Event-Handler: org.matsim.core.events.algorithms.EventWriterXML
2024-12-19T10:02:17,882  INFO EventsManagerImpl:144   org.matsim.core.events.algorithms.EventWriter
2024-12-19T10:02:17,882  INFO EventsManagerImpl:144   org.matsim.core.events.handler.BasicEventHandler
2024-12-19T10:02:17,882  INFO EventsManagerImpl:205     > org.matsim.api.core.v01.events.Event
2024-12-19T10:02:17,882  INFO EventsManagerImpl:154 
2024-12-19T10:02:17,882  INFO ControlerListenerManagerImpl:242 calling notifyBeforeMobsim on org.matsim.core.controler.corelisteners.PlansDumpingImpl with priority 0.0
2024-12-19T10:02:17,882  INFO PlansDumpingImpl:77 dumping plans...
2024-12-19T10:02:17,905  INFO Counter:70 [PopulationWriter] dumped person # 1
2024-12-19T10:02:17,905  INFO Counter:70 [PopulationWriter] dumped person # 2
2024-12-19T10:02:17,905  INFO Counter:70 [PopulationWriter] dumped person # 4
2024-12-19T10:02:17,906  INFO Counter:70 [PopulationWriter] dumped person # 8
2024-12-19T10:02:17,906  INFO Counter:70 [PopulationWriter] dumped person # 16
2024-12-19T10:02:17,906  INFO Counter:70 [PopulationWriter] dumped person # 32
2024-12-19T10:02:17,906  INFO Counter:70 [PopulationWriter] dumped person # 64
2024-12-19T10:02:17,906  INFO Counter:70 [PopulationWriter] dumped person # 128
2024-12-19T10:02:17,907  INFO Counter:70 [PopulationWriter] dumped person # 256
2024-12-19T10:02:17,907  INFO Counter:70 [PopulationWriter] dumped person # 512
2024-12-19T10:02:17,915  INFO Counter:70 [ParallelPopulationWriterV6] dumped person # 1
2024-12-19T10:02:17,916  INFO Counter:70 [ParallelPopulationWriterV6] dumped person # 2
2024-12-19T10:02:17,916  INFO Counter:70 [ParallelPopulationWriterV6] dumped person # 4
2024-12-19T10:02:17,917  INFO Counter:70 [ParallelPopulationWriterV6] dumped person # 8
2024-12-19T10:02:17,918  INFO Counter:70 [ParallelPopulationWriterV6] dumped person # 16
2024-12-19T10:02:17,920  INFO Counter:70 [PopulationWriter] dumped person # 1024
2024-12-19T10:02:17,921  INFO Counter:70 [ParallelPopulationWriterV6] dumped person # 32
2024-12-19T10:02:17,927  INFO Counter:70 [ParallelPopulationWriterV6] dumped person # 64
2024-12-19T10:02:17,936  INFO Counter:70 [ParallelPopulationWriterV6] dumped person # 128
2024-12-19T10:02:17,956  INFO Counter:70 [ParallelPopulationWriterV6] dumped person # 256
2024-12-19T10:02:17,997  INFO Counter:70 [ParallelPopulationWriterV6] dumped person # 512
2024-12-19T10:02:18,062  INFO Counter:70 [ParallelPopulationWriterV6] dumped person # 1024
2024-12-19T10:02:18,064  INFO Counter:70 [PopulationWriter] dumped person # 2048
2024-12-19T10:02:18,179  INFO Counter:70 [ParallelPopulationWriterV6] dumped person # 2048
2024-12-19T10:02:18,295  INFO Counter:70 [PopulationWriter] dumped person # 4096
2024-12-19T10:02:18,415  INFO Counter:70 [ParallelPopulationWriterV6] dumped person # 4096
2024-12-19T10:02:18,807  INFO Counter:70 [PopulationWriter] dumped person # 8192
2024-12-19T10:02:18,929  INFO Counter:70 [ParallelPopulationWriterV6] dumped person # 8192
2024-12-19T10:02:18,988  INFO Counter:75 [ParallelPopulationWriterV6] dumped person # 8744
2024-12-19T10:02:18,988  INFO PopulationWriter:150 Population written to: scenarios/equil/output/run_20241219_100053/ITERS/it.0/0.plans.xml.gz
2024-12-19T10:02:18,989  INFO Counter:75 [PopulationWriter] dumped person # 8744
2024-12-19T10:02:18,989  INFO PlansDumpingImpl:94 finished plans dump.
2024-12-19T10:02:18,990  INFO ControlerListenerManagerImpl:248 calling notifyBeforeMobsim on org.matsim.core.population.VspPlansCleaner with priority 0.0
2024-12-19T10:02:19,004  INFO ControlerListenerManagerImpl:251 [it.0] all ControlerBeforeMobsimListeners called.
2024-12-19T10:02:19,004  INFO PrepareForMobsimImpl:86 Network seems to be multimodal. Create car-only network which is handed over to PersonPrepareForSim.
2024-12-19T10:02:19,004  INFO NetworkImpl:165  node # 1
2024-12-19T10:02:19,005  INFO NetworkImpl:165  node # 4
2024-12-19T10:02:19,005  INFO NetworkImpl:165  node # 16
2024-12-19T10:02:19,005  INFO NetworkImpl:165  node # 64
2024-12-19T10:02:19,005  INFO NetworkImpl:165  node # 256
2024-12-19T10:02:19,005  INFO NetworkImpl:165  node # 1024
2024-12-19T10:02:19,006  INFO NetworkImpl:165  node # 4096
2024-12-19T10:02:19,007  INFO NetworkImpl:165  node # 16384
2024-12-19T10:02:19,008  INFO NetworkImpl:161  link # 1
2024-12-19T10:02:19,008  INFO NetworkImpl:161  link # 4
2024-12-19T10:02:19,008  INFO NetworkImpl:161  link # 16
2024-12-19T10:02:19,008  INFO NetworkImpl:161  link # 64
2024-12-19T10:02:19,009  INFO NetworkImpl:161  link # 256
2024-12-19T10:02:19,009  INFO NetworkImpl:161  link # 1024
2024-12-19T10:02:19,012  INFO NetworkImpl:161  link # 4096
2024-12-19T10:02:19,024  INFO NetworkImpl:161  link # 16384
2024-12-19T10:02:19,090  INFO RandomizingTimeDistanceTravelDisutilityFactory:86  sigma: 3.0; resulting normalization: 0.011108996538242306
2024-12-19T10:02:19,095  INFO RandomizingTimeDistanceTravelDisutilityFactory:86  sigma: 3.0; resulting normalization: 0.011108996538242306
2024-12-19T10:02:19,102  INFO Counter:70 [PersonPrepareForSim] handled person # 1
2024-12-19T10:02:19,102  INFO Counter:70 [PersonPrepareForSim] handled person # 2
2024-12-19T10:02:19,103  INFO Counter:70 [PersonPrepareForSim] handled person # 4
2024-12-19T10:02:19,103  INFO Counter:70 [PersonPrepareForSim] handled person # 8
2024-12-19T10:02:19,103  INFO Counter:70 [PersonPrepareForSim] handled person # 16
2024-12-19T10:02:19,103  INFO Counter:70 [PersonPrepareForSim] handled person # 32
2024-12-19T10:02:19,103  INFO Counter:70 [PersonPrepareForSim] handled person # 64
2024-12-19T10:02:19,103  INFO Counter:70 [PersonPrepareForSim] handled person # 128
2024-12-19T10:02:19,103  INFO Counter:70 [PersonPrepareForSim] handled person # 256
2024-12-19T10:02:19,104  INFO Counter:70 [PersonPrepareForSim] handled person # 512
2024-12-19T10:02:19,106  INFO Counter:70 [PersonPrepareForSim] handled person # 1024
2024-12-19T10:02:19,108  INFO Counter:70 [PersonPrepareForSim] handled person # 2048
2024-12-19T10:02:19,111  INFO Counter:70 [PersonPrepareForSim] handled person # 4096
2024-12-19T10:02:19,116  INFO Counter:70 [PersonPrepareForSim] handled person # 8192
2024-12-19T10:02:19,117  INFO Counter:75 [PersonPrepareForSim] handled person # 8744
2024-12-19T10:02:19,174  INFO MobsimListenerManager:50 calling addQueueSimulationListener
2024-12-19T10:02:19,175  INFO MobsimListenerManager:54   assigned class org.matsim.core.mobsim.framework.listeners.MobsimListener to interface org.matsim.core.mobsim.framework.listeners.MobsimListener
2024-12-19T10:02:19,175  INFO MobsimListenerManager:54   assigned class org.matsim.core.mobsim.framework.listeners.MobsimListener to interface org.matsim.vis.snapshotwriters.SnapshotWriterManager
2024-12-19T10:02:19,175  INFO MobsimListenerManager:54   assigned class org.matsim.core.mobsim.framework.listeners.MobsimListener to interface org.matsim.core.mobsim.framework.listeners.MobsimAfterSimStepListener
2024-12-19T10:02:19,175  INFO MobsimListenerManager:54   assigned class org.matsim.core.mobsim.framework.listeners.MobsimListener to interface org.matsim.core.mobsim.framework.listeners.MobsimInitializedListener
2024-12-19T10:02:19,175  INFO MobsimListenerManager:54   assigned class org.matsim.core.mobsim.framework.listeners.MobsimListener to interface org.matsim.core.mobsim.framework.listeners.MobsimBeforeCleanupListener
2024-12-19T10:02:19,178  INFO QSimProvider:131 Added MobsimEngine class org.matsim.core.mobsim.qsim.ActivityEngineDefaultImpl
2024-12-19T10:02:19,178  INFO QSimProvider:137 Added Activityhandler class org.matsim.core.mobsim.qsim.ActivityEngineDefaultImpl
2024-12-19T10:02:19,323  INFO QSimProvider:143 Added DepartureHandler class org.matsim.core.mobsim.qsim.qnetsimengine.VehicularDepartureHandler
2024-12-19T10:02:19,323  INFO QSimProvider:131 Added MobsimEngine class org.matsim.core.mobsim.qsim.qnetsimengine.QNetsimEngineWithThreadpool
2024-12-19T10:02:19,323  INFO QSimProvider:131 Added MobsimEngine class org.matsim.core.mobsim.qsim.DefaultTeleportationEngine
2024-12-19T10:02:19,323  INFO QSimProvider:143 Added DepartureHandler class org.matsim.core.mobsim.qsim.DefaultTeleportationEngine
2024-12-19T10:02:19,323  INFO QSimProvider:149 Added AgentSource class org.matsim.core.mobsim.qsim.agents.PopulationAgentSource
2024-12-19T10:02:19,324  INFO MobsimListenerManager:50 calling addQueueSimulationListener
2024-12-19T10:02:19,324  INFO MobsimListenerManager:54   assigned class org.matsim.core.mobsim.framework.listeners.MobsimListener to interface org.matsim.core.mobsim.framework.listeners.MobsimBeforeSimStepListener
2024-12-19T10:02:19,324  INFO MobsimListenerManager:54   assigned class org.matsim.core.mobsim.framework.listeners.MobsimListener to interface org.matsim.core.mobsim.framework.listeners.MobsimListener
2024-12-19T10:02:19,324  INFO MobsimListenerManager:54   assigned class org.matsim.core.mobsim.framework.listeners.MobsimListener to interface org.matsim.core.mobsim.qsim.messagequeueengine.MessageQueueEngine
2024-12-19T10:02:19,324  INFO QSimProvider:155 Added MobsimListener class org.matsim.core.mobsim.qsim.messagequeueengine.MessageQueueEngine
2024-12-19T10:02:19,330  INFO PopulationUtils:1247 adding scenario element for allpersons container
2024-12-19T10:02:19,330  INFO PopulationImpl:107  person # 1
2024-12-19T10:02:19,330  INFO PopulationImpl:107  person # 4
2024-12-19T10:02:19,330  INFO PopulationImpl:107  person # 16
2024-12-19T10:02:19,331  INFO PopulationImpl:107  person # 64
2024-12-19T10:02:19,333  INFO PopulationImpl:107  person # 256
2024-12-19T10:02:19,338  INFO PopulationImpl:107  person # 1024
2024-12-19T10:02:19,344  INFO PopulationImpl:107  person # 4096
2024-12-19T10:02:19,353  INFO VehicleUtils:395 adding scenario element for allvehicles container
2024-12-19T10:02:19,353  INFO Counter:70 [VehiclesImpl] added vehicle # 1
2024-12-19T10:02:19,353  INFO Counter:70 [VehiclesImpl] added vehicle # 2
2024-12-19T10:02:19,354  INFO Counter:70 [VehiclesImpl] added vehicle # 4
2024-12-19T10:02:19,354  INFO Counter:70 [VehiclesImpl] added vehicle # 8
2024-12-19T10:02:19,354  INFO Counter:70 [VehiclesImpl] added vehicle # 16
2024-12-19T10:02:19,355  INFO Counter:70 [VehiclesImpl] added vehicle # 32
2024-12-19T10:02:19,355  INFO Counter:70 [VehiclesImpl] added vehicle # 64
2024-12-19T10:02:19,356  INFO Counter:70 [VehiclesImpl] added vehicle # 128
2024-12-19T10:02:19,357  INFO Counter:70 [VehiclesImpl] added vehicle # 256
2024-12-19T10:02:19,359  INFO Counter:70 [VehiclesImpl] added vehicle # 512
2024-12-19T10:02:19,361  INFO Counter:70 [VehiclesImpl] added vehicle # 1024
2024-12-19T10:02:19,364  INFO Counter:70 [VehiclesImpl] added vehicle # 2048
2024-12-19T10:02:19,369  INFO Counter:70 [VehiclesImpl] added vehicle # 4096
2024-12-19T10:02:19,379  INFO Counter:70 [VehiclesImpl] added vehicle # 8192
2024-12-19T10:02:19,423  INFO AbstractQNetsimEngine:426 Assigned 27759 nodes and 64052 links to QSimEngineRunner #0
2024-12-19T10:02:19,443  INFO EventsManagerImpl:115  event # 1
2024-12-19T10:02:19,446  INFO EventsManagerImpl:115  event # 4
2024-12-19T10:02:19,446  INFO EventsManagerImpl:115  event # 16
2024-12-19T10:02:19,449  INFO EventsManagerImpl:115  event # 64
2024-12-19T10:02:19,457  INFO EventsManagerImpl:115  event # 256
2024-12-19T10:02:19,477  INFO EventsManagerImpl:115  event # 1024
2024-12-19T10:02:19,563  INFO EventsManagerImpl:115  event # 4096
2024-12-19T10:02:19,592  INFO AbstractQNetsimEngine:364 SIMULATION (QNetsimEngine) AT 08:00:00 : #links=1170 #nodes=984
2024-12-19T10:02:19,599  INFO QSim:566 SIMULATION (NEW QSim) AT 08:00:00 : #Veh=8744 lost=0 simT=0.0s realT=0s; (s/r): 0.0
2024-12-19T10:02:19,683  INFO EventsManagerImpl:115  event # 16384
2024-12-19T10:02:20,175  INFO EventsManagerImpl:115  event # 65536
2024-12-19T10:02:21,560  INFO EventsManagerImpl:115  event # 262144
2024-12-19T10:02:22,193  INFO AbstractQNetsimEngine:364 SIMULATION (QNetsimEngine) AT 09:00:00 : #links=3508 #nodes=125
2024-12-19T10:02:22,193  INFO QSim:566 SIMULATION (NEW QSim) AT 09:00:00 : #Veh=8744 lost=0 simT=3600.0s realT=3s; (s/r): 1200.0
2024-12-19T10:02:24,045  INFO AbstractQNetsimEngine:364 SIMULATION (QNetsimEngine) AT 10:00:00 : #links=3320 #nodes=105
2024-12-19T10:02:24,045  INFO QSim:566 SIMULATION (NEW QSim) AT 10:00:00 : #Veh=8744 lost=0 simT=7200.0s realT=4s; (s/r): 1800.0
2024-12-19T10:02:25,298  INFO AbstractQNetsimEngine:364 SIMULATION (QNetsimEngine) AT 11:00:00 : #links=2595 #nodes=45
2024-12-19T10:02:25,298  INFO QSim:566 SIMULATION (NEW QSim) AT 11:00:00 : #Veh=8744 lost=0 simT=10800.0s realT=6s; (s/r): 1800.0
2024-12-19T10:02:25,310  INFO EventsManagerImpl:115  event # 1048576
2024-12-19T10:02:26,208  INFO AbstractQNetsimEngine:364 SIMULATION (QNetsimEngine) AT 12:00:00 : #links=1552 #nodes=24
2024-12-19T10:02:26,209  INFO QSim:566 SIMULATION (NEW QSim) AT 12:00:00 : #Veh=8744 lost=0 simT=14400.0s realT=7s; (s/r): 2057.1428571428573
2024-12-19T10:02:26,741  INFO AbstractQNetsimEngine:364 SIMULATION (QNetsimEngine) AT 13:00:00 : #links=846 #nodes=12
2024-12-19T10:02:26,741  INFO QSim:566 SIMULATION (NEW QSim) AT 13:00:00 : #Veh=8744 lost=0 simT=18000.0s realT=7s; (s/r): 2571.4285714285716
2024-12-19T10:02:27,111  INFO AbstractQNetsimEngine:364 SIMULATION (QNetsimEngine) AT 14:00:00 : #links=442 #nodes=8
2024-12-19T10:02:27,111  INFO QSim:566 SIMULATION (NEW QSim) AT 14:00:00 : #Veh=8744 lost=0 simT=21600.0s realT=7s; (s/r): 3085.714285714286
2024-12-19T10:02:27,355  INFO AbstractQNetsimEngine:364 SIMULATION (QNetsimEngine) AT 15:00:00 : #links=201 #nodes=0
2024-12-19T10:02:27,355  INFO QSim:566 SIMULATION (NEW QSim) AT 15:00:00 : #Veh=8744 lost=0 simT=25200.0s realT=8s; (s/r): 3150.0
2024-12-19T10:02:27,537  INFO AbstractQNetsimEngine:364 SIMULATION (QNetsimEngine) AT 16:00:00 : #links=101 #nodes=0
2024-12-19T10:02:27,537  INFO QSim:566 SIMULATION (NEW QSim) AT 16:00:00 : #Veh=8744 lost=0 simT=28800.0s realT=8s; (s/r): 3600.0
2024-12-19T10:02:27,755  INFO AbstractQNetsimEngine:364 SIMULATION (QNetsimEngine) AT 17:00:00 : #links=1234 #nodes=994
2024-12-19T10:02:27,756  INFO QSim:566 SIMULATION (NEW QSim) AT 17:00:00 : #Veh=8744 lost=0 simT=32400.0s realT=8s; (s/r): 4050.0
2024-12-19T10:02:28,156 ERROR BasicPlanAgentImpl:187 last activity of person driver agent id car_330.01_329.01_4811 has end time < infty; setting it to infty
2024-12-19T10:02:28,157 ERROR BasicPlanAgentImpl:188  This message given only once.
2024-12-19T10:02:29,607  INFO AbstractQNetsimEngine:364 SIMULATION (QNetsimEngine) AT 18:00:00 : #links=3533 #nodes=117
2024-12-19T10:02:29,607  INFO QSim:566 SIMULATION (NEW QSim) AT 18:00:00 : #Veh=8361 lost=0 simT=36000.0s realT=10s; (s/r): 3600.0
2024-12-19T10:02:31,205  INFO AbstractQNetsimEngine:364 SIMULATION (QNetsimEngine) AT 19:00:00 : #links=3369 #nodes=95
2024-12-19T10:02:31,206  INFO QSim:566 SIMULATION (NEW QSim) AT 19:00:00 : #Veh=6944 lost=0 simT=39600.0s realT=12s; (s/r): 3300.0
2024-12-19T10:02:32,407  INFO AbstractQNetsimEngine:364 SIMULATION (QNetsimEngine) AT 20:00:00 : #links=2634 #nodes=48
2024-12-19T10:02:32,408  INFO QSim:566 SIMULATION (NEW QSim) AT 20:00:00 : #Veh=4645 lost=0 simT=43200.0s realT=13s; (s/r): 3323.076923076923
2024-12-19T10:02:33,278  INFO AbstractQNetsimEngine:364 SIMULATION (QNetsimEngine) AT 21:00:00 : #links=1657 #nodes=26
2024-12-19T10:02:33,279  INFO QSim:566 SIMULATION (NEW QSim) AT 21:00:00 : #Veh=2538 lost=0 simT=46800.0s realT=14s; (s/r): 3342.8571428571427
2024-12-19T10:02:33,882  INFO AbstractQNetsimEngine:364 SIMULATION (QNetsimEngine) AT 22:00:00 : #links=919 #nodes=14
2024-12-19T10:02:33,882  INFO QSim:566 SIMULATION (NEW QSim) AT 22:00:00 : #Veh=1313 lost=0 simT=50400.0s realT=14s; (s/r): 3600.0
2024-12-19T10:02:34,289  INFO AbstractQNetsimEngine:364 SIMULATION (QNetsimEngine) AT 23:00:00 : #links=491 #nodes=6
2024-12-19T10:02:34,290  INFO QSim:566 SIMULATION (NEW QSim) AT 23:00:00 : #Veh=693 lost=0 simT=54000.0s realT=15s; (s/r): 3600.0
2024-12-19T10:02:34,579  INFO AbstractQNetsimEngine:364 SIMULATION (QNetsimEngine) AT 24:00:00 : #links=238 #nodes=1
2024-12-19T10:02:34,579  INFO QSim:566 SIMULATION (NEW QSim) AT 24:00:00 : #Veh=350 lost=0 simT=57600.0s realT=15s; (s/r): 3840.0
2024-12-19T10:02:34,786  INFO AbstractQNetsimEngine:364 SIMULATION (QNetsimEngine) AT 25:00:00 : #links=137 #nodes=0
2024-12-19T10:02:34,786  INFO QSim:566 SIMULATION (NEW QSim) AT 25:00:00 : #Veh=215 lost=0 simT=61200.0s realT=15s; (s/r): 4080.0
2024-12-19T10:02:34,968  INFO AbstractQNetsimEngine:364 SIMULATION (QNetsimEngine) AT 26:00:00 : #links=105 #nodes=1
2024-12-19T10:02:34,968  INFO QSim:566 SIMULATION (NEW QSim) AT 26:00:00 : #Veh=148 lost=0 simT=64800.0s realT=15s; (s/r): 4320.0
2024-12-19T10:02:35,129  INFO AbstractQNetsimEngine:364 SIMULATION (QNetsimEngine) AT 27:00:00 : #links=90 #nodes=1
2024-12-19T10:02:35,129  INFO QSim:566 SIMULATION (NEW QSim) AT 27:00:00 : #Veh=106 lost=0 simT=68400.0s realT=15s; (s/r): 4560.0
2024-12-19T10:02:35,289  INFO AbstractQNetsimEngine:364 SIMULATION (QNetsimEngine) AT 28:00:00 : #links=60 #nodes=1
2024-12-19T10:02:35,289  INFO QSim:566 SIMULATION (NEW QSim) AT 28:00:00 : #Veh=65 lost=0 simT=72000.0s realT=16s; (s/r): 4500.0
2024-12-19T10:02:35,459  INFO AbstractQNetsimEngine:364 SIMULATION (QNetsimEngine) AT 29:00:00 : #links=28 #nodes=1
2024-12-19T10:02:35,459  INFO QSim:566 SIMULATION (NEW QSim) AT 29:00:00 : #Veh=28 lost=0 simT=75600.0s realT=16s; (s/r): 4725.0
2024-12-19T10:02:35,606  INFO AbstractQNetsimEngine:364 SIMULATION (QNetsimEngine) AT 30:00:00 : #links=8 #nodes=0
2024-12-19T10:02:35,607  INFO QSim:566 SIMULATION (NEW QSim) AT 30:00:00 : #Veh=8 lost=0 simT=79200.0s realT=16s; (s/r): 4950.0
2024-12-19T10:02:35,657  INFO Gbl:196 Thread performance: Thread=class org.matsim.core.events.SimStepParallelEventsManagerImpl$ProcessEventsRunnable0  cpu-time=12.22698253sec
2024-12-19T10:02:35,657  INFO AbstractController$9:237 ### ITERATION 0 fires after mobsim event
2024-12-19T10:02:35,658  INFO ControlerListenerManagerImpl:269 calling notifyAfterMobsim on org.matsim.analysis.LegTimesControlerListener with priority 0.0
2024-12-19T10:02:35,664  INFO LegTimesControlerListener:51 [0] average trip (probably: leg) duration is: 12170 seconds = 03:22:50
2024-12-19T10:02:35,664  INFO ControlerListenerManagerImpl:269 calling notifyAfterMobsim on org.matsim.core.events.MobsimScopeEventHandling with priority 0.0
2024-12-19T10:02:35,666  INFO ControlerListenerManagerImpl:269 calling notifyAfterMobsim on org.matsim.core.scoring.EventsToActivities$1 with priority 0.0
2024-12-19T10:02:35,679  INFO ControlerListenerManagerImpl:272 [it.0] all ControlerAfterMobsimListeners called.
2024-12-19T10:02:35,680  INFO AbstractController$4:162 ### ITERATION 0 fires scoring event
2024-12-19T10:02:35,680  INFO ControlerListenerManagerImpl:197 calling notifyScoring on org.matsim.core.scoring.PlansScoringImpl with priority 0.0
2024-12-19T10:02:35,695  INFO NewScoreAssignerImpl:58 it: 0 msaStart: null
2024-12-19T10:02:35,702  INFO ControlerListenerManagerImpl:209 [it.0] all ControlerScoringListeners called.
2024-12-19T10:02:35,703  INFO AbstractController$5:170 ### ITERATION 0 fires iteration end event
2024-12-19T10:02:35,703  INFO ControlerListenerManagerImpl:172 calling notifyIterationEnds on org.matsim.core.controler.corelisteners.EventsHandlingImpl with priority 0.0
2024-12-19T10:02:35,704  INFO EventsManagerImpl:159 removing Event-Handler: org.matsim.core.events.algorithms.EventWriterXML
2024-12-19T10:02:35,704  INFO EventsManagerImpl:159 removing Event-Handler: org.matsim.core.events.algorithms.EventWriterXML
2024-12-19T10:02:35,704  INFO ControlerListenerManagerImpl:172 calling notifyIterationEnds on org.matsim.core.scoring.PlansScoringImpl with priority 0.0
2024-12-19T10:02:35,710  INFO ControlerListenerManagerImpl:180 calling notifyIterationEnds on org.matsim.counts.CountsControlerListener with priority 0.0
2024-12-19T10:02:35,710  INFO ControlerListenerManagerImpl:180 calling notifyIterationEnds on org.matsim.analysis.ModeStatsControlerListener with priority 0.0
2024-12-19T10:02:35,726  INFO ModeStatsControlerListener:133 Mode shares over all 17488.0 trips found. MainModeIdentifier: class org.matsim.core.router.DefaultAnalysisMainModeIdentifier
2024-12-19T10:02:35,726  INFO ModeStatsControlerListener:140 -- mode share of mode car = 1.0
2024-12-19T10:02:35,727  INFO ControlerListenerManagerImpl:180 calling notifyIterationEnds on org.matsim.analysis.ScoreStatsControlerListener with priority 0.0
2024-12-19T10:02:35,732  INFO ScoreStatsControlerListener:154 -- avg. score of the executed plan of each agent: -3908.465025977471
2024-12-19T10:02:35,732  INFO ScoreStatsControlerListener:155 -- avg. score of the worst plan of each agent: -3908.465025977471
2024-12-19T10:02:35,732  INFO ScoreStatsControlerListener:156 -- avg. of the avg. plan score per agent: -3908.465025977471
2024-12-19T10:02:35,732  INFO ScoreStatsControlerListener:157 -- avg. score of the best plan of each agent: -3908.465025977471
2024-12-19T10:02:35,739  INFO ControlerListenerManagerImpl:180 calling notifyIterationEnds on org.matsim.analysis.IterationTravelStatsControlerListener with priority 0.0
2024-12-19T10:02:35,772  INFO TravelDistanceStats:115 -- average leg distance per plan (executed plans only): 97390.41407167855 meters
2024-12-19T10:02:35,773  INFO TravelDistanceStats:116 average leg distance per Person (executed plans only): 194691.72437933908 meters (statistic on all 17480 legs which have a finite distance)
2024-12-19T10:02:35,773  INFO TravelDistanceStats:117 -- average trip distance per plan (executed plans only): 97390.41407167855 meters
2024-12-19T10:02:35,773  INFO TravelDistanceStats:118 average trip distance per Person (executed plans only): 194691.72437933908 meters (statistic on all 17480 trips which have a finite distance)
2024-12-19T10:02:35,773  INFO TravelDistanceStats:119 (TravelDistanceStats takes an average over all legs where the simulation reports travelled (network) distances
2024-12-19T10:02:35,773  INFO TravelDistanceStats:120 (and teleported legs whose route contains a distance.)
2024-12-19T10:02:36,324  INFO ActivityWriter:39 Writing all Activities to activitiescsv
2024-12-19T10:02:36,540  INFO ActivityWriter:59 ...done
2024-12-19T10:02:36,540  INFO ControlerListenerManagerImpl:180 calling notifyIterationEnds on org.matsim.analysis.LegHistogramListener with priority 0.0
2024-12-19T10:02:36,546  INFO LegHistogramListener:73 number of legs:	17488	100%
2024-12-19T10:02:36,547  INFO LegHistogramListener:80 number of car legs:	17488	100.0%
2024-12-19T10:02:36,717  INFO ControlerListenerManagerImpl:180 calling notifyIterationEnds on org.matsim.analysis.LinkStatsControlerListener with priority 0.0
2024-12-19T10:02:36,717  INFO ControlerListenerManagerImpl:184 [it.0] all ControlerIterationEndsListeners called.
2024-12-19T10:02:36,806  INFO AbstractController:184 ### ITERATION 0 ENDS
2024-12-19T10:02:36,806  INFO AbstractController:185 ###################################################
2024-12-19T10:02:36,806  INFO AbstractController:136 ###################################################
2024-12-19T10:02:36,806  INFO AbstractController:137 ### ITERATION 1 BEGINS
2024-12-19T10:02:36,806  INFO ControlerListenerManagerImpl:156 calling notifyIterationStarts on org.matsim.analysis.LegHistogramListener with priority 0.0
2024-12-19T10:02:36,807  INFO ControlerListenerManagerImpl:156 calling notifyIterationStarts on org.matsim.analysis.LinkStatsControlerListener with priority 0.0
2024-12-19T10:02:36,807  INFO ControlerListenerManagerImpl:156 calling notifyIterationStarts on org.matsim.core.replanning.ReplanningContextImpl with priority 0.0
2024-12-19T10:02:36,807  INFO ControlerListenerManagerImpl:156 calling notifyIterationStarts on org.matsim.core.scoring.ScoringFunctionsForPopulation$$Lambda$241/0x00007fd0ec352e70 with priority 0.0
2024-12-19T10:02:36,816  INFO ControlerListenerManagerImpl:156 calling notifyIterationStarts on org.matsim.core.scoring.ExperiencedPlansServiceImpl$1 with priority 0.0
2024-12-19T10:02:36,818  INFO ControlerListenerManagerImpl:159 [it.1] all ControlerIterationStartsListeners called.
2024-12-19T10:02:36,819  INFO ControlerListenerManagerImpl:221 calling notifyReplanning on org.matsim.core.controler.corelisteners.PlansReplanningImpl with priority 0.0
2024-12-19T10:02:36,819  INFO RandomizingTimeDistanceTravelDisutilityFactory:86  sigma: 3.0; resulting normalization: 0.011108996538242306
2024-12-19T10:02:36,820  INFO RandomizingTimeDistanceTravelDisutilityFactory:86  sigma: 3.0; resulting normalization: 0.011108996538242306
2024-12-19T10:02:36,848  INFO GenericPlanStrategyImpl:135 Plan-Strategy finished, 7168 plans handled. Strategy: BestPlanSelector
2024-12-19T10:02:36,848  INFO AbstractMultithreadedModule:142 [PlanRouter] starting 2 threads, handling 745 plans
2024-12-19T10:02:36,923  INFO Counter:70 [PlanRouter] handled plan # 1
2024-12-19T10:02:36,937  INFO Counter:70 [PlanRouter] handled plan # 2
2024-12-19T10:02:36,953  INFO Counter:70 [PlanRouter] handled plan # 4
2024-12-19T10:02:37,011  INFO Counter:70 [PlanRouter] handled plan # 8
2024-12-19T10:02:37,085  INFO Counter:70 [PlanRouter] handled plan # 16
2024-12-19T10:02:37,232  INFO Counter:70 [PlanRouter] handled plan # 32
2024-12-19T10:02:37,406  INFO Counter:70 [PlanRouter] handled plan # 64
2024-12-19T10:02:37,979  INFO Counter:70 [PlanRouter] handled plan # 128
2024-12-19T10:02:38,888  INFO Counter:70 [PlanRouter] handled plan # 256
2024-12-19T10:02:41,447  INFO Counter:70 [PlanRouter] handled plan # 512
2024-12-19T10:02:44,342  INFO AbstractMultithreadedModule:157 [PlanRouter] all 2 threads finished.
2024-12-19T10:02:44,342  INFO GenericPlanStrategyImpl:135 Plan-Strategy finished, 745 plans handled. Strategy: RandomPlanSelector_ReRoute
2024-12-19T10:02:44,342  INFO AbstractMultithreadedModule:142 [MutateActivityTimeAllocation] starting 2 threads, handling 831 plans
2024-12-19T10:02:44,343  INFO Counter:70 [MutateActivityTimeAllocation] handled plan # 1
2024-12-19T10:02:44,343  INFO Counter:70 [MutateActivityTimeAllocation] handled plan # 2
2024-12-19T10:02:44,343  INFO Counter:70 [MutateActivityTimeAllocation] handled plan # 4
2024-12-19T10:02:44,343  INFO Counter:70 [MutateActivityTimeAllocation] handled plan # 8
2024-12-19T10:02:44,343  INFO Counter:70 [MutateActivityTimeAllocation] handled plan # 16
2024-12-19T10:02:44,343  INFO Counter:70 [MutateActivityTimeAllocation] handled plan # 32
2024-12-19T10:02:44,343  INFO Counter:70 [MutateActivityTimeAllocation] handled plan # 64
2024-12-19T10:02:44,344  INFO Counter:70 [MutateActivityTimeAllocation] handled plan # 128
2024-12-19T10:02:44,344  INFO Counter:70 [MutateActivityTimeAllocation] handled plan # 256
2024-12-19T10:02:44,345  INFO Counter:70 [MutateActivityTimeAllocation] handled plan # 512
[...]
2024-12-19T10:11:26,727  INFO MobsimListenerManager:54   assigned class org.matsim.core.mobsim.framework.listeners.MobsimListener to interface org.matsim.core.mobsim.framework.listeners.MobsimListener
2024-12-19T10:11:26,728  INFO MobsimListenerManager:54   assigned class org.matsim.core.mobsim.framework.listeners.MobsimListener to interface org.matsim.core.mobsim.qsim.messagequeueengine.MessageQueueEngine
2024-12-19T10:11:26,728  INFO QSimProvider:155 Added MobsimListener class org.matsim.core.mobsim.qsim.messagequeueengine.MessageQueueEngine
2024-12-19T10:11:26,762  INFO AbstractQNetsimEngine:426 Assigned 27759 nodes and 64052 links to QSimEngineRunner #0
2024-12-19T10:11:26,766  INFO AbstractQNetsimEngine:364 SIMULATION (QNetsimEngine) AT 07:00:10 : #links=1 #nodes=1
2024-12-19T10:11:26,766  INFO QSim:566 SIMULATION (NEW QSim) AT 07:00:10 : #Veh=8744 lost=0 simT=0.0s realT=0s; (s/r): 0.0
2024-12-19T10:11:27,155  INFO AbstractQNetsimEngine:364 SIMULATION (QNetsimEngine) AT 08:00:00 : #links=2814 #nodes=931
2024-12-19T10:11:27,155  INFO QSim:566 SIMULATION (NEW QSim) AT 08:00:00 : #Veh=8744 lost=0 simT=3590.0s realT=0s; (s/r): Infinity
2024-12-19T10:11:28,829  INFO AbstractQNetsimEngine:364 SIMULATION (QNetsimEngine) AT 09:00:00 : #links=3993 #nodes=116
2024-12-19T10:11:28,829  INFO QSim:566 SIMULATION (NEW QSim) AT 09:00:00 : #Veh=8744 lost=0 simT=7190.0s realT=2s; (s/r): 3595.0
2024-12-19T10:11:30,440  INFO AbstractQNetsimEngine:364 SIMULATION (QNetsimEngine) AT 10:00:00 : #links=3605 #nodes=87
2024-12-19T10:11:30,440  INFO QSim:566 SIMULATION (NEW QSim) AT 10:00:00 : #Veh=8744 lost=0 simT=10790.0s realT=3s; (s/r): 3596.6666666666665
2024-12-19T10:11:31,621  INFO AbstractQNetsimEngine:364 SIMULATION (QNetsimEngine) AT 11:00:00 : #links=2758 #nodes=37
2024-12-19T10:11:31,621  INFO QSim:566 SIMULATION (NEW QSim) AT 11:00:00 : #Veh=8744 lost=0 simT=14390.0s realT=4s; (s/r): 3597.5
2024-12-19T10:11:32,420  INFO AbstractQNetsimEngine:364 SIMULATION (QNetsimEngine) AT 12:00:00 : #links=1538 #nodes=24
2024-12-19T10:11:32,420  INFO QSim:566 SIMULATION (NEW QSim) AT 12:00:00 : #Veh=8744 lost=0 simT=17990.0s realT=5s; (s/r): 3598.0
2024-12-19T10:11:32,916  INFO AbstractQNetsimEngine:364 SIMULATION (QNetsimEngine) AT 13:00:00 : #links=824 #nodes=13
2024-12-19T10:11:32,916  INFO QSim:566 SIMULATION (NEW QSim) AT 13:00:00 : #Veh=8744 lost=0 simT=21590.0s realT=6s; (s/r): 3598.3333333333335
2024-12-19T10:11:33,301  INFO AbstractQNetsimEngine:364 SIMULATION (QNetsimEngine) AT 14:00:00 : #links=448 #nodes=4
2024-12-19T10:11:33,301  INFO QSim:566 SIMULATION (NEW QSim) AT 14:00:00 : #Veh=8744 lost=0 simT=25190.0s realT=6s; (s/r): 4198.333333333333
2024-12-19T10:11:33,576  INFO AbstractQNetsimEngine:364 SIMULATION (QNetsimEngine) AT 15:00:00 : #links=198 #nodes=0
2024-12-19T10:11:33,576  INFO QSim:566 SIMULATION (NEW QSim) AT 15:00:00 : #Veh=8744 lost=0 simT=28790.0s realT=6s; (s/r): 4798.333333333333
2024-12-19T10:11:33,788  INFO AbstractQNetsimEngine:364 SIMULATION (QNetsimEngine) AT 16:00:00 : #links=100 #nodes=0
2024-12-19T10:11:33,788  INFO QSim:566 SIMULATION (NEW QSim) AT 16:00:00 : #Veh=8744 lost=0 simT=32390.0s realT=7s; (s/r): 4627.142857142857
2024-12-19T10:11:34,152  INFO AbstractQNetsimEngine:364 SIMULATION (QNetsimEngine) AT 17:00:00 : #links=2433 #nodes=943
2024-12-19T10:11:34,152  INFO QSim:566 SIMULATION (NEW QSim) AT 17:00:00 : #Veh=8739 lost=0 simT=35990.0s realT=7s; (s/r): 5141.428571428572
2024-12-19T10:11:35,808  INFO AbstractQNetsimEngine:364 SIMULATION (QNetsimEngine) AT 18:00:00 : #links=4056 #nodes=110
2024-12-19T10:11:35,808  INFO QSim:566 SIMULATION (NEW QSim) AT 18:00:00 : #Veh=8327 lost=0 simT=39590.0s realT=9s; (s/r): 4398.888888888889
2024-12-19T10:11:37,441  INFO AbstractQNetsimEngine:364 SIMULATION (QNetsimEngine) AT 19:00:00 : #links=3687 #nodes=86
2024-12-19T10:11:37,441  INFO QSim:566 SIMULATION (NEW QSim) AT 19:00:00 : #Veh=6890 lost=0 simT=43190.0s realT=10s; (s/r): 4319.0
2024-12-19T10:11:38,681  INFO AbstractQNetsimEngine:364 SIMULATION (QNetsimEngine) AT 20:00:00 : #links=2834 #nodes=51
2024-12-19T10:11:38,681  INFO QSim:566 SIMULATION (NEW QSim) AT 20:00:00 : #Veh=4524 lost=0 simT=46790.0s realT=12s; (s/r): 3899.1666666666665
2024-12-19T10:11:39,508  INFO AbstractQNetsimEngine:364 SIMULATION (QNetsimEngine) AT 21:00:00 : #links=1634 #nodes=21
2024-12-19T10:11:39,508  INFO QSim:566 SIMULATION (NEW QSim) AT 21:00:00 : #Veh=2382 lost=0 simT=50390.0s realT=12s; (s/r): 4199.166666666667
2024-12-19T10:11:40,026  INFO AbstractQNetsimEngine:364 SIMULATION (QNetsimEngine) AT 22:00:00 : #links=896 #nodes=12
2024-12-19T10:11:40,026  INFO QSim:566 SIMULATION (NEW QSim) AT 22:00:00 : #Veh=1167 lost=0 simT=53990.0s realT=13s; (s/r): 4153.076923076923
2024-12-19T10:11:40,377  INFO AbstractQNetsimEngine:364 SIMULATION (QNetsimEngine) AT 23:00:00 : #links=454 #nodes=7
2024-12-19T10:11:40,377  INFO QSim:566 SIMULATION (NEW QSim) AT 23:00:00 : #Veh=582 lost=0 simT=57590.0s realT=13s; (s/r): 4430.0
2024-12-19T10:11:40,623  INFO AbstractQNetsimEngine:364 SIMULATION (QNetsimEngine) AT 24:00:00 : #links=228 #nodes=4
2024-12-19T10:11:40,623  INFO QSim:566 SIMULATION (NEW QSim) AT 24:00:00 : #Veh=268 lost=0 simT=61190.0s realT=13s; (s/r): 4706.923076923077
2024-12-19T10:11:40,811  INFO AbstractQNetsimEngine:364 SIMULATION (QNetsimEngine) AT 25:00:00 : #links=107 #nodes=4
2024-12-19T10:11:40,811  INFO QSim:566 SIMULATION (NEW QSim) AT 25:00:00 : #Veh=123 lost=0 simT=64790.0s realT=14s; (s/r): 4627.857142857143
2024-12-19T10:11:40,974  INFO AbstractQNetsimEngine:364 SIMULATION (QNetsimEngine) AT 26:00:00 : #links=53 #nodes=0
2024-12-19T10:11:40,974  INFO QSim:566 SIMULATION (NEW QSim) AT 26:00:00 : #Veh=55 lost=0 simT=68390.0s realT=14s; (s/r): 4885.0
2024-12-19T10:11:41,123  INFO AbstractQNetsimEngine:364 SIMULATION (QNetsimEngine) AT 27:00:00 : #links=18 #nodes=0
2024-12-19T10:11:41,123  INFO QSim:566 SIMULATION (NEW QSim) AT 27:00:00 : #Veh=18 lost=0 simT=71990.0s realT=14s; (s/r): 5142.142857142857
2024-12-19T10:11:41,268  INFO AbstractQNetsimEngine:364 SIMULATION (QNetsimEngine) AT 28:00:00 : #links=5 #nodes=0
2024-12-19T10:11:41,268  INFO QSim:566 SIMULATION (NEW QSim) AT 28:00:00 : #Veh=5 lost=0 simT=75590.0s realT=14s; (s/r): 5399.285714285715
2024-12-19T10:11:41,404  INFO AbstractController$9:237 ### ITERATION 10 fires after mobsim event
2024-12-19T10:11:41,404  INFO Gbl:196 Thread performance: Thread=class org.matsim.core.events.SimStepParallelEventsManagerImpl$ProcessEventsRunnable0  cpu-time=11.177349661sec
2024-12-19T10:11:41,404  INFO ControlerListenerManagerImpl:269 calling notifyAfterMobsim on org.matsim.analysis.LegTimesControlerListener with priority 0.0
2024-12-19T10:11:41,404  INFO LegTimesControlerListener:51 [10] average trip (probably: leg) duration is: 11835 seconds = 03:17:15
2024-12-19T10:11:41,404  INFO ControlerListenerManagerImpl:269 calling notifyAfterMobsim on org.matsim.core.events.MobsimScopeEventHandling with priority 0.0
2024-12-19T10:11:41,404  INFO ControlerListenerManagerImpl:269 calling notifyAfterMobsim on org.matsim.core.scoring.EventsToActivities$1 with priority 0.0
2024-12-19T10:11:41,409  INFO ControlerListenerManagerImpl:272 [it.10] all ControlerAfterMobsimListeners called.
2024-12-19T10:11:41,409  INFO AbstractController$4:162 ### ITERATION 10 fires scoring event
2024-12-19T10:11:41,409  INFO ControlerListenerManagerImpl:197 calling notifyScoring on org.matsim.core.scoring.PlansScoringImpl with priority 0.0
2024-12-19T10:11:41,411  INFO NewScoreAssignerImpl:58 it: 10 msaStart: null
2024-12-19T10:11:41,415  INFO ControlerListenerManagerImpl:209 [it.10] all ControlerScoringListeners called.
2024-12-19T10:11:41,415  INFO AbstractController$5:170 ### ITERATION 10 fires iteration end event
2024-12-19T10:11:41,415  INFO ControlerListenerManagerImpl:172 calling notifyIterationEnds on org.matsim.core.controler.corelisteners.EventsHandlingImpl with priority 0.0
2024-12-19T10:11:41,416  INFO EventsManagerImpl:159 removing Event-Handler: org.matsim.core.events.algorithms.EventWriterXML
2024-12-19T10:11:41,416  INFO EventsManagerImpl:159 removing Event-Handler: org.matsim.core.events.algorithms.EventWriterXML
2024-12-19T10:11:41,416  INFO ControlerListenerManagerImpl:172 calling notifyIterationEnds on org.matsim.core.scoring.PlansScoringImpl with priority 0.0
2024-12-19T10:11:41,418  INFO ControlerListenerManagerImpl:180 calling notifyIterationEnds on org.matsim.counts.CountsControlerListener with priority 0.0
2024-12-19T10:11:41,421  INFO CountSimComparisonTableWriter:94 Writing CountsSimComparison to scenarios/equil/output/run_20241219_100053/ITERS/it.10/10.countscompare.txt
2024-12-19T10:11:41,422  INFO CountSimComparisonTableWriter:135 Writing 'average weekday traffic volume' to scenarios/equil/output/run_20241219_100053/ITERS/it.10/10.countscompareAWTV.txt
2024-12-19T10:11:41,422  INFO ControlerListenerManagerImpl:180 calling notifyIterationEnds on org.matsim.analysis.ModeStatsControlerListener with priority 0.0
2024-12-19T10:11:41,431  INFO ModeStatsControlerListener:133 Mode shares over all 17488.0 trips found. MainModeIdentifier: class org.matsim.core.router.DefaultAnalysisMainModeIdentifier
2024-12-19T10:11:41,431  INFO ModeStatsControlerListener:140 -- mode share of mode car = 1.0
2024-12-19T10:11:41,490  INFO ControlerListenerManagerImpl:180 calling notifyIterationEnds on org.matsim.analysis.ScoreStatsControlerListener with priority 0.0
2024-12-19T10:11:41,493  INFO ScoreStatsControlerListener:154 -- avg. score of the executed plan of each agent: -3815.77000863116
2024-12-19T10:11:41,493  INFO ScoreStatsControlerListener:155 -- avg. score of the worst plan of each agent: -4044.132314095213
2024-12-19T10:11:41,493  INFO ScoreStatsControlerListener:156 -- avg. of the avg. plan score per agent: -3910.176514736553
2024-12-19T10:11:41,493  INFO ScoreStatsControlerListener:157 -- avg. score of the best plan of each agent: -3780.2916976313336
2024-12-19T10:11:41,521  INFO ControlerListenerManagerImpl:180 calling notifyIterationEnds on org.matsim.analysis.IterationTravelStatsControlerListener with priority 0.0
2024-12-19T10:11:41,526  INFO TravelDistanceStats:115 -- average leg distance per plan (executed plans only): 95165.94438768976 meters
2024-12-19T10:11:41,526  INFO TravelDistanceStats:116 average leg distance per Person (executed plans only): 190331.8887753795 meters (statistic on all 17488 legs which have a finite distance)
2024-12-19T10:11:41,526  INFO TravelDistanceStats:117 -- average trip distance per plan (executed plans only): 95165.94438768976 meters
2024-12-19T10:11:41,526  INFO TravelDistanceStats:118 average trip distance per Person (executed plans only): 190331.8887753795 meters (statistic on all 17488 trips which have a finite distance)
2024-12-19T10:11:41,526  INFO TravelDistanceStats:119 (TravelDistanceStats takes an average over all legs where the simulation reports travelled (network) distances
2024-12-19T10:11:41,526  INFO TravelDistanceStats:120 (and teleported legs whose route contains a distance.)
2024-12-19T10:11:42,012  INFO ActivityWriter:39 Writing all Activities to activitiescsv
2024-12-19T10:11:42,221  INFO ActivityWriter:59 ...done
2024-12-19T10:11:42,222  INFO ControlerListenerManagerImpl:180 calling notifyIterationEnds on org.matsim.analysis.LegHistogramListener with priority 0.0
2024-12-19T10:11:42,223  INFO LegHistogramListener:73 number of legs:	17488	100%
2024-12-19T10:11:42,223  INFO LegHistogramListener:80 number of car legs:	17488	100.0%
2024-12-19T10:11:42,309  INFO ControlerListenerManagerImpl:180 calling notifyIterationEnds on org.matsim.analysis.LinkStatsControlerListener with priority 0.0
2024-12-19T10:11:42,310  INFO ControlerListenerManagerImpl:184 [it.10] all ControlerIterationEndsListeners called.
2024-12-19T10:11:42,355  INFO AbstractController:184 ### ITERATION 10 ENDS
2024-12-19T10:11:42,355  INFO AbstractController:185 ###################################################
2024-12-19T10:11:42,355  INFO MatsimRuntimeModifications:80 S H U T D O W N   ---   start shutdown.
2024-12-19T10:11:42,356  INFO ControlerListenerManagerImpl:128 calling notifyShutdown on org.matsim.core.controler.corelisteners.EventsHandlingImpl with priority 0.0
2024-12-19T10:11:42,356  INFO ControlerListenerManagerImpl:128 calling notifyShutdown on org.matsim.core.controler.corelisteners.DumpDataAtEndImpl with priority 0.0
2024-12-19T10:11:42,360  INFO Counter:70 [PopulationWriter] dumped person # 1
2024-12-19T10:11:42,360  INFO Counter:70 [PopulationWriter] dumped person # 2
2024-12-19T10:11:42,360  INFO Counter:70 [PopulationWriter] dumped person # 4
2024-12-19T10:11:42,361  INFO Counter:70 [PopulationWriter] dumped person # 8
2024-12-19T10:11:42,361  INFO Counter:70 [PopulationWriter] dumped person # 16
2024-12-19T10:11:42,361  INFO Counter:70 [PopulationWriter] dumped person # 32
2024-12-19T10:11:42,361  INFO Counter:70 [PopulationWriter] dumped person # 64
2024-12-19T10:11:42,361  INFO Counter:70 [ParallelPopulationWriterV6] dumped person # 1
2024-12-19T10:11:42,361  INFO Counter:70 [PopulationWriter] dumped person # 128
2024-12-19T10:11:42,361  INFO Counter:70 [ParallelPopulationWriterV6] dumped person # 2
2024-12-19T10:11:42,361  INFO Counter:70 [PopulationWriter] dumped person # 256
2024-12-19T10:11:42,361  INFO Counter:70 [PopulationWriter] dumped person # 512
2024-12-19T10:11:42,361  INFO Counter:70 [ParallelPopulationWriterV6] dumped person # 4
2024-12-19T10:11:42,362  INFO Counter:70 [ParallelPopulationWriterV6] dumped person # 8
2024-12-19T10:11:42,364  INFO Counter:70 [ParallelPopulationWriterV6] dumped person # 16
2024-12-19T10:11:42,366  INFO Counter:70 [PopulationWriter] dumped person # 1024
2024-12-19T10:11:42,367  INFO Counter:70 [ParallelPopulationWriterV6] dumped person # 32
2024-12-19T10:11:42,376  INFO Counter:70 [ParallelPopulationWriterV6] dumped person # 64
2024-12-19T10:11:42,389  INFO Counter:70 [ParallelPopulationWriterV6] dumped person # 128
2024-12-19T10:11:42,417  INFO Counter:70 [ParallelPopulationWriterV6] dumped person # 256
2024-12-19T10:11:42,471  INFO Counter:70 [ParallelPopulationWriterV6] dumped person # 512
2024-12-19T10:11:42,570  INFO Counter:70 [ParallelPopulationWriterV6] dumped person # 1024
2024-12-19T10:11:42,572  INFO Counter:70 [PopulationWriter] dumped person # 2048
2024-12-19T10:11:42,758  INFO Counter:70 [ParallelPopulationWriterV6] dumped person # 2048
2024-12-19T10:11:42,940  INFO Counter:70 [PopulationWriter] dumped person # 4096
2024-12-19T10:11:43,143  INFO Counter:70 [ParallelPopulationWriterV6] dumped person # 4096
2024-12-19T10:11:43,789  INFO Counter:70 [PopulationWriter] dumped person # 8192
2024-12-19T10:11:44,012  INFO Counter:70 [ParallelPopulationWriterV6] dumped person # 8192
2024-12-19T10:11:44,126  INFO Counter:75 [ParallelPopulationWriterV6] dumped person # 8744
2024-12-19T10:11:44,126  INFO PopulationWriter:150 Population written to: scenarios/equil/output/run_20241219_100053/output_plans.xml.gz
2024-12-19T10:11:44,126  INFO Counter:75 [PopulationWriter] dumped person # 8744
2024-12-19T10:11:44,127  INFO NetworkWriter:70 Writing network to file: scenarios/equil/output/run_20241219_100053/output_network.xml.gz...
2024-12-19T10:11:44,814  INFO NetworkWriter:73 done.
2024-12-19T10:11:44,819  INFO Config:550 setting context to [file:/home/opc/matsim-example-project/]
2024-12-19T10:11:44,821  INFO Config:550 setting context to [file:/home/opc/matsim-example-project/]
2024-12-19T10:11:44,826  INFO Config:550 setting context to [file:/home/opc/matsim-example-project/]
2024-12-19T10:11:44,828  INFO Config:550 setting context to [file:/home/opc/matsim-example-project/]
2024-12-19T10:11:44,829  INFO Config:550 setting context to [file:/home/opc/matsim-example-project/]
2024-12-19T10:11:44,830  INFO Config:550 setting context to [file:/home/opc/matsim-example-project/]
2024-12-19T10:11:44,831  INFO Config:550 setting context to [file:/home/opc/matsim-example-project/]
2024-12-19T10:11:44,832  INFO Config:550 setting context to [file:/home/opc/matsim-example-project/]
2024-12-19T10:11:44,852  INFO Config:550 setting context to [file:/home/opc/matsim-example-project/]
2024-12-19T10:11:44,853  INFO Config:550 setting context to [file:/home/opc/matsim-example-project/]
2024-12-19T10:11:44,854  INFO Config:550 setting context to [file:/home/opc/matsim-example-project/]
2024-12-19T10:11:44,854  INFO Config:550 setting context to [file:/home/opc/matsim-example-project/]
2024-12-19T10:11:44,855  INFO Config:550 setting context to [file:/home/opc/matsim-example-project/]
2024-12-19T10:11:44,856  INFO Config:550 setting context to [file:/home/opc/matsim-example-project/]
2024-12-19T10:11:44,861  INFO Config:550 setting context to [file:/home/opc/matsim-example-project/]
2024-12-19T10:11:44,863  INFO Config:550 setting context to [file:/home/opc/matsim-example-project/]
2024-12-19T10:11:44,864  INFO Config:550 setting context to [file:/home/opc/matsim-example-project/]
2024-12-19T10:11:44,866  INFO Config:550 setting context to [file:/home/opc/matsim-example-project/]
2024-12-19T10:11:44,867  INFO Config:550 setting context to [file:/home/opc/matsim-example-project/]
2024-12-19T10:11:44,871  INFO Config:550 setting context to [file:/home/opc/matsim-example-project/]
2024-12-19T10:11:44,872  INFO Config:550 setting context to [file:/home/opc/matsim-example-project/]
2024-12-19T10:11:44,872  INFO Config:550 setting context to [file:/home/opc/matsim-example-project/]
2024-12-19T10:11:44,873  INFO Config:550 setting context to [file:/home/opc/matsim-example-project/]
2024-12-19T10:11:44,874  INFO Config:550 setting context to [file:/home/opc/matsim-example-project/]
2024-12-19T10:11:44,875  INFO Config:550 setting context to [file:/home/opc/matsim-example-project/]
2024-12-19T10:11:44,876  INFO Config:550 setting context to [file:/home/opc/matsim-example-project/]
2024-12-19T10:11:44,878  INFO MatsimVehicleWriter:49 about to write vehicles to: scenarios/equil/output/run_20241219_100053/output_vehicles.xml.gz
2024-12-19T10:11:44,878  INFO VehicleWriterV2:64 about to write vehicles to: scenarios/equil/output/run_20241219_100053/output_vehicles.xml.gz
2024-12-19T10:11:44,907  INFO MatsimVehicleWriter:49 about to write vehicles to: scenarios/equil/output/run_20241219_100053/output_allVehicles.xml.gz
2024-12-19T10:11:44,907  INFO VehicleWriterV2:64 about to write vehicles to: scenarios/equil/output/run_20241219_100053/output_allVehicles.xml.gz
2024-12-19T10:11:44,931  INFO HouseholdsWriterV10:66 about to write  households to: scenarios/equil/output/run_20241219_100053/output_households.xml.gz
2024-12-19T10:11:44,931  INFO Counter:75 [HouseholdsWriter] wrote household # 0
2024-12-19T10:11:44,935  INFO CountsWriterV2:45 Write Counts to scenarios/equil/output/run_20241219_100053/output_counts.xml.gz
2024-12-19T10:11:44,958  INFO ControlerListenerManagerImpl:135 calling notifyShutdown on org.matsim.analysis.ScoreStatsControlerListener with priority 0.0
2024-12-19T10:11:44,958  INFO ControlerListenerManagerImpl:135 calling notifyShutdown on org.matsim.analysis.IterationTravelStatsControlerListener with priority 0.0
2024-12-19T10:11:44,958  INFO PersonWriter:36 Writing all Persons to personscsv
2024-12-19T10:11:45,030  INFO PersonWriter:54 ...done
2024-12-19T10:11:45,030  INFO ControlerListenerManagerImpl:135 calling notifyShutdown on org.matsim.analysis.LinkStatsControlerListener with priority 0.0
2024-12-19T10:11:45,861  INFO ControlerListenerManagerImpl:138 all ControlerShutdownListeners called.
2024-12-19T10:11:45,861  INFO MatsimRuntimeModifications:103 S H U T D O W N   ---   shutdown completed.
2024-12-19T10:11:45,861  INFO OutputDirectoryLogging:172 closing the logfile, i.e. messages sent to the logger after this message are not written to the logfile.
