2024-12-18T21:57:30,464  INFO Gbl:64 JVM: 17.0.13; Red Hat, Inc.; mixed mode, sharing; 64-bit
2024-12-18T21:57:30,465  INFO Gbl:68 OS: Linux; 5.15.0-301.163.5.2.el8uek.x86_64; amd64
2024-12-18T21:57:30,465  INFO Gbl:71 CPU cores: 8
2024-12-18T21:57:30,467  INFO Gbl:72 max. Memory: 16008.0MB (16785604608B)
2024-12-18T21:57:30,468  INFO Gbl:114 MATSim-Build: ree04702ba7fc026b6bdf5a6ea52a749cf0c790e1 (2024-04-13 15:48:32)
2024-12-18T21:57:30,468  INFO Gbl:76 Command: org.matsim.project.RunMatsim
2024-12-18T21:57:30,472  INFO ControlerListenerManagerImpl:112 calling notifyStartup on org.matsim.core.controler.ControlerDefaultsModule$1 with priority 0.0
2024-12-18T21:57:30,472  INFO MemoryObserver:42 used RAM: 775 MB  free: 1736 MB  total: 2512 MB
2024-12-18T21:57:30,516  INFO ControlerListenerManagerImpl:112 calling notifyStartup on org.matsim.guice.DependencyGraphControlerListener with priority 0.0
2024-12-18T21:57:30,599  INFO ControlerListenerManagerImpl:112 calling notifyStartup on org.matsim.counts.CountsControlerListener with priority 0.0
2024-12-18T21:57:30,599  INFO ControlerListenerManagerImpl:112 calling notifyStartup on org.matsim.analysis.ModeStatsControlerListener with priority 0.0
2024-12-18T21:57:30,599  INFO ControlerListenerManagerImpl:112 calling notifyStartup on org.matsim.analysis.ScoreStatsControlerListener with priority 0.0
2024-12-18T21:57:30,599  INFO ControlerListenerManagerImpl:115 all ControlerStartupListeners called.
2024-12-18T21:57:30,600  INFO ControlerUtils:79 config dump before iterations start
2024-12-18T21:57:30,613  INFO ControlerUtils:83 

<?xml version="1.0" encoding="UTF-8"?>
<!DOCTYPE config SYSTEM "http://www.matsim.org/files/dtd/config_v2.dtd">
<config>
	<module name="changeMode" >
		<!-- Defines whether car availability is considered be considered or not. An agent has no car only if it has no license, or never access to a car. Default: true -->
		<param name="ignoreCarAvailability" value="true" />
		<!-- Defines the mode switch behavior. Possible values [fromAllModesToSpecifiedModes, fromSpecifiedModesToSpecifiedModes] Default: fromSpecifiedModesToSpecifiedModes. -->
		<param name="modeSwitchBehavior" value="fromSpecifiedModesToSpecifiedModes" />
		<!-- Defines all the modes available, including chain-based modes, seperated by commas -->
		<param name="modes" value="car,pt" />
	</module>
	<module name="controller" >
		<!-- Defines what should be done with the ITERS directory when a simulation finished successfully -->
		<param name="cleanItersAtEnd" value="keep" />
		<!-- Compression algorithm to use when writing out data to files. Possible values: [none, gzip, lz4, zst] -->
		<param name="compressionType" value="gzip" />
		<!-- Sets the interval in which graphs are generated. Default is 1. If set to 0, no graphs are generated. The generation of graphs usually takes a small amount of time that does not have any weight in big simulations, but add a significant overhead in smaller runs or in test cases where the graphical output is not even requested. -->
		<param name="createGraphsInterval" value="1" />
		<!-- Defines when the scoring functions for the population are created. Default=IterationStarts. Possible values: [IterationStarts, BeforeMobsim] -->
		<param name="createScoringFunctionType" value="IterationStarts" />
		<!-- true if at the end of a run, plans, network, config etc should be dumped to a file -->
		<param name="dumpDataAtEnd" value="true" />
		<!-- Default=false. If enabled, the router takes travel times needed for turning moves into account. Can only be used with Dijkstra routing. Cannot be used when TravelTimeCalculator.separateModes is enabled. -->
		<param name="enableLinkToLinkRouting" value="false" />
		<!-- Default=xml; Specifies the file format for writing events. Currently supported: [xml, pb, json]
		Multiple values can be specified separated by commas (','). -->
		<param name="eventsFileFormat" value="xml" />
		<!-- Default=0. First Iteration of a simulation. -->
		<param name="firstIteration" value="0" />
		<!-- Default=1000. Last Iteration of a simulation. -->
		<param name="lastIteration" value="1" />
		<!-- Defines the interval for printing memory usage to the log in [seconds]. Must be positive. Defaults to 60. -->
		<param name="memoryObserverInterval" value="60" />
		<!-- Defines which mobility simulation will be used. Currently supported: [qsim, JDEQSim, hermes]
		Depending on the chosen mobsim, you'll have to add additional config modules to configure the corresponding mobsim.
		For 'qsim', add a module 'qsim' to the config. -->
		<param name="mobsim" value="qsim" />
		<param name="outputDirectory" value="scenarios/equil/output/run_20241218_215721" />
		<!-- Possible values: failIfDirectoryExists,overwriteExistingFiles,deleteDirectoryIfExists -->
		<param name="overwriteFiles" value="deleteDirectoryIfExists" />
		<!-- The type of routing (least cost path) algorithm used, may have the values: [Dijkstra, AStarLandmarks, SpeedyALT] -->
		<param name="routingAlgorithmType" value="SpeedyALT" />
		<!-- An identifier for the current run which is used as prefix for output files and mentioned in output xml files etc. -->
		<param name="runId" value="null" />
		<!-- Comma-separated list of visualizer output file formats. `transims' and `otfvis'. -->
		<param name="snapshotFormat" value="" />
		<!-- iterationNumber % writeEventsInterval == 0 defines in which iterations events are written to a file. `0' disables events writing completely. -->
		<param name="writeEventsInterval" value="50" />
		<!-- iterationNumber % writePlansInterval == 0 defines (hopefully) in which iterations plans are written to a file. `0' disables plans writing completely.  Some plans in early iterations are always written -->
		<param name="writePlansInterval" value="50" />
		<!-- iterationNumber % writeSnapshotsInterval == 0 defines in which iterations snapshots are written to a file. `0' disables snapshots writing completely -->
		<param name="writeSnapshotsInterval" value="1" />
		<!-- iterationNumber % writeEventsInterval == 0 defines in which iterations trips CSV are written to a file. `0' disables trips writing completely. -->
		<param name="writeTripsInterval" value="50" />
	</module>
	<module name="counts" >
		<!-- Transport modes that will be respected for the counts comparison. 'car' is default, which includes also bussed from the pt simulation module. Use this parameter in combination with 'filterModes' = true! -->
		<param name="analyzedModes" value="car" />
		<!-- Specifies over how many iterations the link volumes should be averaged that are used for the counts comparison. Use 1 or 0 to only use the link volumes of a single iteration. This values cannot be larger than the value specified for writeCountsInterval -->
		<param name="averageCountsOverIterations" value="5" />
		<!-- factor by which to re-scale the simulated values.  necessary when simulation runs with something different from 100%.  needs to be adapted manually -->
		<param name="countsScaleFactor" value="1.0" />
		<!-- distance to distanceFilterCenterNode to include counting stations. The unit of distance is the Euclidean distance implied by the coordinate system -->
		<param name="distanceFilter" value="null" />
		<!-- node id for center node of distance filter -->
		<param name="distanceFilterCenterNode" value="null" />
		<!-- If true, link counts from legs performed on modes not included in the 'analyzedModes' parameter are ignored. -->
		<param name="filterModes" value="false" />
		<!-- The Coordinates Reference System in which the coordinates are expressed in the input file. At import, the coordinates will be converted to the coordinate system defined in "global", and willbe converted back at export. If not specified, no conversion happens. -->
		<param name="inputCRS" value="null" />
		<!-- input file name to counts package -->
		<param name="inputCountsFile" value="null" />
		<!-- possible values: `html', `txt', `all' -->
		<param name="outputformat" value="txt" />
		<!-- Specifies how often the counts comparison should be calculated and written. -->
		<param name="writeCountsInterval" value="10" />
	</module>
	<module name="eventsManager" >
		<!-- Estimated number of events during mobsim run. An optional optimization hint for the framework. -->
		<param name="estimatedNumberOfEvents" value="null" />
		<!-- Size of the events Queue. Increase for very large scenarios -->
		<param name="eventsQueueSize" value="131072" />
		<!-- Number of threads for parallel events handler. _null_ means the framework decides by itself. 0 is currently not possible. -->
		<param name="numberOfThreads" value="null" />
		<!-- If enabled, each event handler is assigned to its own thread. Note that enabling this feature disabled the numberOfThreads option! This feature is still experimental! -->
		<param name="oneThreadPerHandler" value="false" />
		<!-- If enabled, it is ensured that all events that are created during a time step of the mobility simulation are processed before the next time step is simulated. E.g. neccessary when within-day replanning is used. -->
		<param name="synchronizeOnSimSteps" value="true" />
	</module>
	<module name="facilities" >
		<!-- This defines how facilities should be created. Possible values: none fromFile setInScenario onePerActivityLinkInPlansFile onePerActivityLinkInPlansFileExceptWhenCoordinatesAreGiven onePerActivityLocationInPlansFile  -->
		<param name="facilitiesSource" value="none" />
		<!-- A prefix to be used for auto-generated IDs. -->
		<param name="idPrefix" value="f_auto_" />
		<!-- The Coordinates Reference System in which the coordinates are expressed in the input file. At import, the coordinates will be converted to the coordinate system defined in "global", and willbe converted back at export. If not specified, no conversion happens. -->
		<param name="inputCRS" value="null" />
		<param name="inputFacilitiesFile" value="null" />
		<param name="inputFacilityAttributesFile" value="null" />
		<param name="insistingOnUsingDeprecatedFacilitiesAttributeFile" value="false" />
	</module>
	<module name="global" >
		<param name="coordinateSystem" value="EPSG:32610" />
		<param name="defaultDelimiter" value=";" />
		<param name="insistingOnDeprecatedConfigVersion" value="true" />
		<!-- "global" number of threads.  This number is used, e.g., for replanning, but NOT in QSim.  This can typically be set to as many cores as you have available, or possibly even slightly more. -->
		<param name="numberOfThreads" value="2" />
		<param name="randomSeed" value="4711" />
	</module>
	<module name="hermes" >
		<!-- Simulation End Time -->
		<param name="endTime" value="30:00:00" />
		<param name="flowCapacityFactor" value="1.0" />
		<param name="mainMode" value="car" />
		<param name="storageCapacityFactor" value="1.0" />
		<!-- time in seconds.  Time after which the frontmost vehicle on a link is called `stuck' if it does not move. Set to Integer.MAX_VALUE to disable this behavior -->
		<param name="stuckTime" value="10" />
		<!-- treats PT as deterministic. PT vehicles will run with a steady speed. Should be used with separate network layers for PT and other network modes. -->
		<param name="useDeterministicPt" value="false" />
	</module>
	<module name="households" >
		<param name="inputFile" value="null" />
		<param name="inputHouseholdAttributesFile" value="null" />
		<param name="insistingOnUsingDeprecatedHouseholdsAttributeFile" value="false" />
	</module>
	<module name="jdeqsim" >
		<param name="carSize" value="7.5" />
		<param name="endTime" value="undefined" />
		<param name="flowCapacityFactor" value="1.0" />
		<param name="gapTravelSpeed" value="15.0" />
		<param name="minimumInFlowCapacity" value="1800.0" />
		<param name="squeezeTime" value="1800.0" />
		<param name="storageCapacityFactor" value="1.0" />
	</module>
	<module name="linkStats" >
		<!-- Specifies over how many iterations the link volumes should be averaged that are used for the link statistics. Use 1 or 0 to only use the link volumes of a single iteration. This values cannot be larger than the value specified for writeLinkStatsInterval -->
		<param name="averageLinkStatsOverIterations" value="5" />
		<!-- Specifies how often the link stats should be calculated and written. Use 0 to disable the generation of link stats. -->
		<param name="writeLinkStatsInterval" value="50" />
	</module>
	<module name="network" >
		<!-- The Coordinates Reference System in which the coordinates are expressed in the input file. At import, the coordinates will be converted to the coordinate system defined in "global", and willbe converted back at export. If not specified, no conversion happens. -->
		<param name="inputCRS" value="null" />
		<param name="inputChangeEventsFile" value="null" />
		<param name="inputNetworkFile" value="output/sf_network.xml.gz" />
		<param name="laneDefinitionsFile" value="null" />
		<param name="timeVariantNetwork" value="false" />
	</module>
	<module name="planInheritance" >
		<!-- Specifies whether or not PlanInheritance Information should be tracked. -->
		<param name="enabled" value="false" />
	</module>
	<module name="plans" >
		<!-- String: minOfDurationAndEndTime tryEndTimeThenDuration endTimeOnly. Anything besides minOfDurationAndEndTime will internally use a different (simpler) version of the TimeAllocationMutator. -->
		<param name="activityDurationInterpretation" value="tryEndTimeThenDuration" />
		<!-- Possible values: reject,useMainModeIdentifier -->
		<param name="handlingOfPlansWithoutRoutingMode" value="reject" />
		<!-- The Coordinates Reference System in which the coordinates are expressed in the input file. At import, the coordinates will be converted to the coordinate system defined in "global", and willbe converted back at export. If not specified, no conversion happens. -->
		<param name="inputCRS" value="null" />
		<param name="inputPersonAttributesFile" value="null" />
		<param name="inputPlansFile" value="output/synthetic_population.xml" />
		<param name="insistingOnUsingDeprecatedPersonAttributeFile" value="false" />
		<!-- Defines how routes are stored in memory. Currently supported: LinkNetworkRoute, MediumCompressedNetworkRoute, HeavyCompressedNetworkRoute. -->
		<param name="networkRouteType" value="LinkNetworkRoute" />
		<!-- (not tested) will remove plan attributes that are presumably not used, such as activityStartTime. default=false. Use with Caution! -->
		<param name="removingUnnecessaryPlanAttributes" value="false" />
		<!-- Defines how departure times are interpreted in rerouting applications. If set to 'ignoreDelays', the departure time of a trip when routing along a plan will always be the nominal (plan-based) activity end time. If set to 'shiftActivityEndTimes', routing along a plan will accumulate travel times and shift activity end times if necessary -->
		<param name="tripDurationHandling" value="ignoreDelays" />
	</module>
	<module name="qsim" >
		<param name="endTime" value="24:00:00" />
		<!-- If set to withLinkAttributes snapshots will only be generated for links which include generateSnapshotForLink as attribute key. Default is no filtering. -->
		<param name="filterSnapshots" value="no" />
		<param name="flowCapacityFactor" value="0.8" />
		<!-- decides if waiting vehicles enter the network after or before the already driving vehicles were moved. Default: false -->
		<param name="insertingWaitingVehiclesBeforeDrivingVehicles" value="true" />
		<!-- If link dynamics is set as SeepageQ, set to false if all seep modes should perform seepage. Default is true (better option). -->
		<param name="isRestrictingSeepage" value="true" />
		<!-- If link dynamics is set as SeepageQ, set to true if seep mode do not consumes any space on the link. Default is false. -->
		<param name="isSeepModeStorageFree" value="false" />
		<!-- default: FIFO; options: FIFO PassingQ SeepageQ -->
		<param name="linkDynamics" value="FIFO" />
		<!-- The (initial) width of the links of the network. Use positive floating point values. This is used only for visualisation. -->
		<param name="linkWidth" value="30.0" />
		<!-- [comma-separated list] Defines which modes are congested modes. Technically, these are the modes that the departure handler of the netsimengine handles.  Effective cell size, effective lane width, flow capacity factor, and storage capacity factor need to be set with diligence.  Need to be vehicular modes to make sense. -->
		<param name="mainMode" value="car" />
		<!-- Shortens a link in the visualization, i.e. its start and end point are moved into towards the center. Does not affect traffic flow.  -->
		<param name="nodeOffset" value="0.0" />
		<!-- Number of threads used for the QSim.  Note that this setting is independent from the "global" threads setting.  In contrast to earlier versions, the non-parallel special version is no longer there. -->
		<param name="numberOfThreads" value="1" />
		<!-- Boolean. `true': stuck vehicles are removed, aborting the plan; `false': stuck vehicles are forced into the next link. `false' is probably the better choice. -->
		<param name="removeStuckVehicles" value="false" />
		<!-- If link dynamics is set as SeepageQ, set a seep mode. Default is bike. -->
		<param name="seepMode" value="bike" />
		<!-- Possible values: minOfEndtimeAndMobsimFinished,onlyUseEndtime -->
		<param name="simEndtimeInterpretation" value="null" />
		<!-- Options: maxOfStarttimeAndEarliestActivityEnd onlyUseStarttime  -->
		<param name="simStarttimeInterpretation" value="maxOfStarttimeAndEarliestActivityEnd" />
		<!-- snapshotStyle. One of: equiDist queue withHoles withHolesAndShowHoles kinematicWaves  -->
		<param name="snapshotStyle" value="queue" />
		<param name="snapshotperiod" value="00:30:00" />
		<param name="startTime" value="00:00:00" />
		<param name="storageCapacityFactor" value="1.0" />
		<!-- time in seconds.  Time after which the frontmost vehicle on a link is called `stuck' if it does not move. -->
		<param name="stuckTime" value="10.0" />
		<param name="timeStepSize" value="00:00:01" />
		<!-- options: queue withHoles kinematicWaves  -->
		<param name="trafficDynamics" value="queue" />
		<!-- Set this parameter to true if lanes should be used, false if not. -->
		<param name="useLanes" value="true" />
		<!-- If a route does not reference a vehicle, agents will use the vehicle with the same id as their own. -->
		<param name="usePersonIdForMissingVehicleId" value="false" />
		<!-- If false, the qsim accumulates fractional flows up to one flow unit in every time step.  If true, flows are updated only if an agent wants to enter the link or an agent is added to buffer. Default is true. -->
		<param name="usingFastCapacityUpdate" value="true" />
		<!-- Defines what happens if an agent wants to depart, but the specified vehicle is not available. One of: teleport wait exception  -->
		<param name="vehicleBehavior" value="teleport" />
		<!-- If vehicles should all be the same default vehicle, or come from the vehicles file, or something else.  Possible values:  defaultVehicle modeVehicleTypesFromVehiclesData fromVehiclesData -->
		<param name="vehiclesSource" value="defaultVehicle" />
	</module>
	<module name="replanning" >
		<!-- the external executable will be called with a config file as argument.  This is the pathname to a possible skeleton config, to which additional information will be added.  Can be null. -->
		<param name="ExternalExeConfigTemplate" value="null" />
		<!-- time out value (in seconds) after which matsim will consider the external strategy as failed -->
		<param name="ExternalExeTimeOut" value="3600" />
		<!-- root directory for temporary files generated by the external executable. Provided as a service; I don't think this is used by MATSim. -->
		<param name="ExternalExeTmpFileRootDir" value="null" />
		<!-- fraction of iterations where innovative strategies are switched off.  Something like 0.8 should be good.  E.g. if you run from iteration 400 to iteration 500, innovation is switched off at iteration 480 -->
		<param name="fractionOfIterationsToDisableInnovation" value="Infinity" />
		<!-- maximum number of plans per agent.  ``0'' means ``infinity''.  Currently (2010), ``5'' is a good number -->
		<param name="maxAgentPlanMemorySize" value="5" />
		<!-- strategyName of PlanSelector for plans removal.  Possible defaults: WorstPlanSelector SelectRandom SelectExpBetaForRemoval ChangeExpBetaForRemoval PathSizeLogitSelectorForRemoval . The current default, WorstPlanSelector is not a good choice from a discrete choice theoretical perspective. Alternatives, however, have not been systematically tested. kai, feb'12 -->
		<param name="planSelectorForRemoval" value="WorstPlanForRemovalSelectorWithConflicts" />
		<parameterset type="strategysettings" >
			<!-- iteration after which strategy will be disabled.  most useful for ``innovative'' strategies (new routes, new times, ...). Normally, better use fractionOfIterationsToDisableInnovation -->
			<param name="disableAfterIteration" value="-1" />
			<!-- path to external executable (if applicable) -->
			<param name="executionPath" value="null" />
			<!-- strategyName of strategy.  Possible default names: SelectRandom BestScore KeepLastSelected ChangeExpBeta SelectExpBeta SelectPathSizeLogit      (selectors), ReRouteTimeAllocationMutatorTimeAllocationMutator_ReRouteChangeSingleTripModeChangeTripModeSubtourModeChoice (innovative strategies). -->
			<param name="strategyName" value="BestScore" />
			<!-- subpopulation to which the strategy applies. "null" refers to the default population, that is, the set of persons for which no explicit subpopulation is defined (ie no subpopulation attribute) -->
			<param name="subpopulation" value="null" />
			<!-- weight of a strategy: for each agent, a strategy will be selected with a probability proportional to its weight -->
			<param name="weight" value="0.9" />
		</parameterset>
		<parameterset type="strategysettings" >
			<param name="disableAfterIteration" value="-1" />
			<param name="executionPath" value="null" />
			<param name="strategyName" value="ReRoute" />
			<param name="subpopulation" value="null" />
			<param name="weight" value="0.1" />
		</parameterset>
	</module>
	<module name="replanningAnnealer" >
		<!-- Activate the scaling of replanning modules using an annealing approach rather than fixed rates. -->
		<param name="activateAnnealingModule" value="false" />
	</module>
	<module name="routing" >
		<!-- Defines how access and egress to main mode is simulated. Either of [none, accessEgressModeToLink, walkConstantTimeToLink, accessEgressModeToLinkPlusTimeConstant], Current default=none which means no access or egress trips are simulated. -->
		<param name="accessEgressType" value="none" />
		<!-- Some typical teleportation routing params are set by default, such as for walk and bike.  Setting this switch to "true" will clear them.  Note that this will also clear settings for helper modes such as for non_network_walk -->
		<param name="clearDefaultTeleportedModeParams" value="false" />
		<!-- All the modes for which the router is supposed to generate network routes (like car) -->
		<param name="networkModes" value="car" />
		<!-- strength of the randomness for the utility of money in routing under toll.  Leads to Pareto-optimal route with randomly drawn money-vs-other-attributes tradeoff. Technically the width parameter of a log-normal distribution. 3.0 seems to be a good value.  -->
		<param name="routingRandomness" value="3.0" />
		<parameterset type="teleportedModeParameters" >
			<param name="beelineDistanceFactor" value="1.3" />
			<param name="mode" value="bike" />
			<!-- Free-speed factor for a teleported mode. Travel time = teleportedModeFreespeedFactor * <freespeed car travel time>. Insert a line like this for every such mode. Please do not set teleportedModeFreespeedFactor as well as teleportedModeSpeed for the same mode, but if you do, +teleportedModeFreespeedFactor wins over teleportedModeSpeed. -->
			<param name="teleportedModeFreespeedFactor" value="null" />
			<!-- Speed for a teleported mode. Travel time = (<beeline distance> * beelineDistanceFactor) / teleportedModeSpeed. Insert a line like this for every such mode. -->
			<param name="teleportedModeSpeed" value="4.166666666666667" />
		</parameterset>
		<parameterset type="teleportedModeParameters" >
			<param name="beelineDistanceFactor" value="1.3" />
			<param name="mode" value="walk" />
			<param name="teleportedModeFreespeedFactor" value="null" />
			<param name="teleportedModeSpeed" value="0.8333333333333333" />
		</parameterset>
		<parameterset type="teleportedModeParameters" >
			<param name="beelineDistanceFactor" value="1.3" />
			<param name="mode" value="non_network_walk" />
			<param name="teleportedModeFreespeedFactor" value="null" />
			<param name="teleportedModeSpeed" value="0.8333333333333333" />
		</parameterset>
		<parameterset type="teleportedModeParameters" >
			<param name="beelineDistanceFactor" value="1.3" />
			<param name="mode" value="ride" />
			<param name="teleportedModeFreespeedFactor" value="1.0" />
			<param name="teleportedModeSpeed" value="null" />
		</parameterset>
		<parameterset type="teleportedModeParameters" >
			<param name="beelineDistanceFactor" value="1.3" />
			<param name="mode" value="pt" />
			<param name="teleportedModeFreespeedFactor" value="2.0" />
			<param name="teleportedModeSpeed" value="null" />
		</parameterset>
	</module>
	<module name="scoring" >
		<!-- logit model scale parameter. default: 1.  Has name and default value for historical reasons (see Bryan Raney's phd thesis). -->
		<param name="brainExpBeta" value="2.0" />
		<!-- fraction of iterations at which MSA score averaging is started. The matsim theory department suggests to use this together with switching off choice set innovation (where a similar switch exists), but it has not been tested yet. -->
		<param name="fractionOfIterationsToStartScoreMSA" value="null" />
		<!-- new_score = (1-learningRate)*old_score + learningRate * score_from_mobsim.  learning rates close to zero emulate score averaging, but slow down initial convergence -->
		<param name="learningRate" value="1.0" />
		<param name="pathSizeLogitBeta" value="1.0" />
		<!-- There used to be a plateau between duration=0 and duration=zeroUtilityDuration. This caused durations to evolve to zero once they were below zeroUtilityDuration, causing problems.  Only use this switch if you need to be backwards compatible with some old results.  (changed nov'13) -->
		<param name="usingOldScoringBelowZeroUtilityDuration" value="false" />
		<!-- write a plans file in each iteration directory which contains what each agent actually did, and the score it received. -->
		<param name="writeExperiencedPlans" value="false" />
		<parameterset type="scoringParameters" >
			<param name="earlyDeparture" value="-0.0" />
			<param name="lateArrival" value="-18.0" />
			<param name="marginalUtilityOfMoney" value="0.01" />
			<param name="performing" value="6.0" />
			<param name="subpopulation" value="null" />
			<param name="utilityOfLineSwitch" value="-1.0" />
			<param name="waiting" value="-0.0" />
			<param name="waitingPt" value="-4.0" />
			<parameterset type="activityParams" >
				<param name="activityType" value="dummy" />
				<param name="closingTime" value="undefined" />
				<param name="earliestEndTime" value="undefined" />
				<param name="latestStartTime" value="undefined" />
				<param name="minimalDuration" value="undefined" />
				<param name="openingTime" value="undefined" />
				<param name="priority" value="1.0" />
				<param name="scoringThisActivityAtAll" value="true" />
				<!-- typical duration of activity.  needs to be defined and non-zero.  in sec. -->
				<param name="typicalDuration" value="02:00:00" />
				<!-- method to compute score at typical duration.  Options: | uniform | relative | Use uniform for backwards compatibility (all activities same score; higher proba to drop long acts). -->
				<param name="typicalDurationScoreComputation" value="relative" />
			</parameterset>
			<parameterset type="activityParams" >
				<param name="activityType" value="car interaction" />
				<param name="closingTime" value="undefined" />
				<param name="earliestEndTime" value="undefined" />
				<param name="latestStartTime" value="undefined" />
				<param name="minimalDuration" value="undefined" />
				<param name="openingTime" value="undefined" />
				<param name="priority" value="1.0" />
				<param name="scoringThisActivityAtAll" value="false" />
				<param name="typicalDuration" value="undefined" />
				<param name="typicalDurationScoreComputation" value="relative" />
			</parameterset>
			<parameterset type="activityParams" >
				<param name="activityType" value="pt interaction" />
				<param name="closingTime" value="undefined" />
				<param name="earliestEndTime" value="undefined" />
				<param name="latestStartTime" value="undefined" />
				<param name="minimalDuration" value="undefined" />
				<param name="openingTime" value="undefined" />
				<param name="priority" value="1.0" />
				<param name="scoringThisActivityAtAll" value="false" />
				<param name="typicalDuration" value="undefined" />
				<param name="typicalDurationScoreComputation" value="relative" />
			</parameterset>
			<parameterset type="activityParams" >
				<param name="activityType" value="bike interaction" />
				<param name="closingTime" value="undefined" />
				<param name="earliestEndTime" value="undefined" />
				<param name="latestStartTime" value="undefined" />
				<param name="minimalDuration" value="undefined" />
				<param name="openingTime" value="undefined" />
				<param name="priority" value="1.0" />
				<param name="scoringThisActivityAtAll" value="false" />
				<param name="typicalDuration" value="undefined" />
				<param name="typicalDurationScoreComputation" value="relative" />
			</parameterset>
			<parameterset type="activityParams" >
				<param name="activityType" value="drt interaction" />
				<param name="closingTime" value="undefined" />
				<param name="earliestEndTime" value="undefined" />
				<param name="latestStartTime" value="undefined" />
				<param name="minimalDuration" value="undefined" />
				<param name="openingTime" value="undefined" />
				<param name="priority" value="1.0" />
				<param name="scoringThisActivityAtAll" value="false" />
				<param name="typicalDuration" value="undefined" />
				<param name="typicalDurationScoreComputation" value="relative" />
			</parameterset>
			<parameterset type="activityParams" >
				<param name="activityType" value="taxi interaction" />
				<param name="closingTime" value="undefined" />
				<param name="earliestEndTime" value="undefined" />
				<param name="latestStartTime" value="undefined" />
				<param name="minimalDuration" value="undefined" />
				<param name="openingTime" value="undefined" />
				<param name="priority" value="1.0" />
				<param name="scoringThisActivityAtAll" value="false" />
				<param name="typicalDuration" value="undefined" />
				<param name="typicalDurationScoreComputation" value="relative" />
			</parameterset>
			<parameterset type="activityParams" >
				<param name="activityType" value="other interaction" />
				<param name="closingTime" value="undefined" />
				<param name="earliestEndTime" value="undefined" />
				<param name="latestStartTime" value="undefined" />
				<param name="minimalDuration" value="undefined" />
				<param name="openingTime" value="undefined" />
				<param name="priority" value="1.0" />
				<param name="scoringThisActivityAtAll" value="false" />
				<param name="typicalDuration" value="undefined" />
				<param name="typicalDurationScoreComputation" value="relative" />
			</parameterset>
			<parameterset type="activityParams" >
				<param name="activityType" value="walk interaction" />
				<param name="closingTime" value="undefined" />
				<param name="earliestEndTime" value="undefined" />
				<param name="latestStartTime" value="undefined" />
				<param name="minimalDuration" value="undefined" />
				<param name="openingTime" value="undefined" />
				<param name="priority" value="1.0" />
				<param name="scoringThisActivityAtAll" value="false" />
				<param name="typicalDuration" value="undefined" />
				<param name="typicalDurationScoreComputation" value="relative" />
			</parameterset>
			<parameterset type="activityParams" >
				<param name="activityType" value="home" />
				<param name="closingTime" value="undefined" />
				<param name="earliestEndTime" value="undefined" />
				<param name="latestStartTime" value="undefined" />
				<param name="minimalDuration" value="undefined" />
				<param name="openingTime" value="undefined" />
				<param name="priority" value="1.0" />
				<param name="scoringThisActivityAtAll" value="true" />
				<param name="typicalDuration" value="12:00:00" />
				<param name="typicalDurationScoreComputation" value="relative" />
			</parameterset>
			<parameterset type="activityParams" >
				<param name="activityType" value="work" />
				<param name="closingTime" value="18:00:00" />
				<param name="earliestEndTime" value="undefined" />
				<param name="latestStartTime" value="09:00:00" />
				<param name="minimalDuration" value="undefined" />
				<param name="openingTime" value="07:00:00" />
				<param name="priority" value="1.0" />
				<param name="scoringThisActivityAtAll" value="true" />
				<param name="typicalDuration" value="08:00:00" />
				<param name="typicalDurationScoreComputation" value="relative" />
			</parameterset>
			<parameterset type="activityParams" >
				<param name="activityType" value="ride interaction" />
				<param name="closingTime" value="undefined" />
				<param name="earliestEndTime" value="undefined" />
				<param name="latestStartTime" value="undefined" />
				<param name="minimalDuration" value="undefined" />
				<param name="openingTime" value="undefined" />
				<param name="priority" value="1.0" />
				<param name="scoringThisActivityAtAll" value="false" />
				<param name="typicalDuration" value="undefined" />
				<param name="typicalDurationScoreComputation" value="relative" />
			</parameterset>
			<parameterset type="modeParams" >
				<!-- [utils] alternative-specific constant.  Normally per trip, but that is probably buggy for multi-leg trips. -->
				<param name="constant" value="0.0" />
				<!-- [unit_of_money/day] Fixed cost of mode, per day. -->
				<param name="dailyMonetaryConstant" value="1.0" />
				<!-- [utils] daily utility constant. default=0 to be backwards compatible -->
				<param name="dailyUtilityConstant" value="0.0" />
				<!-- [utils/m] utility of traveling (e.g. walking or driving) per m, normally negative.  this is on top of the time (dis)utility. -->
				<param name="marginalUtilityOfDistance_util_m" value="-0.02" />
				<!-- [utils/hr] additional marginal utility of traveling.  normally negative.  this comes on top of the opportunity cost of time -->
				<param name="marginalUtilityOfTraveling_util_hr" value="-6.0" />
				<param name="mode" value="car" />
				<!-- [unit_of_money/m] conversion of distance into money. Normally negative. -->
				<param name="monetaryDistanceRate" value="-1.0E-4" />
			</parameterset>
			<parameterset type="modeParams" >
				<param name="constant" value="0.0" />
				<param name="dailyMonetaryConstant" value="0.0" />
				<param name="dailyUtilityConstant" value="0.0" />
				<param name="marginalUtilityOfDistance_util_m" value="-0.05" />
				<param name="marginalUtilityOfTraveling_util_hr" value="-6.0" />
				<param name="mode" value="walk" />
				<param name="monetaryDistanceRate" value="-0.005" />
			</parameterset>
			<parameterset type="modeParams" >
				<param name="constant" value="0.0" />
				<param name="dailyMonetaryConstant" value="0.0" />
				<param name="dailyUtilityConstant" value="0.0" />
				<param name="marginalUtilityOfDistance_util_m" value="-0.025" />
				<param name="marginalUtilityOfTraveling_util_hr" value="-3.0" />
				<param name="mode" value="bike" />
				<param name="monetaryDistanceRate" value="0.0015" />
			</parameterset>
			<parameterset type="modeParams" >
				<param name="constant" value="0.0" />
				<param name="dailyMonetaryConstant" value="2.0" />
				<param name="dailyUtilityConstant" value="0.0" />
				<param name="marginalUtilityOfDistance_util_m" value="-0.0025" />
				<param name="marginalUtilityOfTraveling_util_hr" value="-6.0" />
				<param name="mode" value="ride" />
				<param name="monetaryDistanceRate" value="-1.0E-4" />
			</parameterset>
			<parameterset type="modeParams" >
				<param name="constant" value="0.0" />
				<param name="dailyMonetaryConstant" value="0.0" />
				<param name="dailyUtilityConstant" value="0.0" />
				<param name="marginalUtilityOfDistance_util_m" value="-0.0025" />
				<param name="marginalUtilityOfTraveling_util_hr" value="-4.0" />
				<param name="mode" value="pt" />
				<param name="monetaryDistanceRate" value="-1.0E-4" />
			</parameterset>
			<parameterset type="modeParams" >
				<param name="constant" value="0.0" />
				<param name="dailyMonetaryConstant" value="1.0" />
				<param name="dailyUtilityConstant" value="0.0" />
				<param name="marginalUtilityOfDistance_util_m" value="-0.02" />
				<param name="marginalUtilityOfTraveling_util_hr" value="-2.0" />
				<param name="mode" value="other" />
				<param name="monetaryDistanceRate" value="-1.0E-4" />
			</parameterset>
		</parameterset>
	</module>
	<module name="subtourModeChoice" >
		<!-- Only for backwards compatibility.  Defines if only trips from modes list should change mode, or all trips.  Options: fromAllModesToSpecifiedModes fromSpecifiedModesToSpecifiedModes betweenAllAndFewerConstraints  -->
		<param name="behavior" value="fromSpecifiedModesToSpecifiedModes" />
		<!-- Defines the chain-based modes, seperated by commas -->
		<param name="chainBasedModes" value="car,bike" />
		<!-- Defines whether car availability must be considered or not. A agent has no car only if it has no license, or never access to a car -->
		<param name="considerCarAvailability" value="false" />
		<!-- If greater than 0, subtours will also consider coordinates to be at the same location when smaller than set distance. -->
		<param name="coordDistance" value="0.0" />
		<!-- Defines all the modes available, including chain-based modes, seperated by commas -->
		<param name="modes" value="car,pt,bike,walk" />
		<!-- Defines the probability of changing a single trip for a unchained mode instead of subtour. -->
		<param name="probaForRandomSingleTripMode" value="0.0" />
	</module>
	<module name="timeAllocationMutator" >
		<!-- Latest Activity End Time. Default = 24:00:00 -->
		<param name="latestActivityEndTime" value="86400.0" />
		<!-- Mutates times only around the initially defined end times. -->
		<param name="mutateAroundInitialEndTimeOnly" value="false" />
		<!-- Default:true; Defines whether time mutation changes an activity's duration. -->
		<param name="mutationAffectsDuration" value="true" />
		<!-- Default:1800.0; Defines how many seconds a time mutation can maximally shift a time. -->
		<param name="mutationRange" value="1800.0" />
		<!-- Mutation Range Step, default = 1 second -->
		<param name="mutationRangeStep" value="1.0" />
	</module>
	<module name="transit" >
		<!-- The Coordinates Reference System in which the coordinates are expressed in the input file. At import, the coordinates will be converted to the coordinate system defined in "global", and willbe converted back at export. If not specified, no conversion happens. -->
		<param name="inputScheduleCRS" value="null" />
		<param name="insistingOnUsingDeprecatedAttributeFiles" value="false" />
		<!-- The type of transit routing algorithm used, may have the values: [DijkstraBased, SwissRailRaptor] -->
		<param name="routingAlgorithmType" value="SwissRailRaptor" />
		<!-- Optional input file containing additional attributes for transit lines, stored as ObjectAttributes. -->
		<param name="transitLinesAttributesFile" value="null" />
		<!-- Comma-separated list of transportation modes that are handled as transit. Defaults to 'pt'. -->
		<param name="transitModes" value="pt" />
		<!-- Input file containing the transit schedule to be simulated. -->
		<param name="transitScheduleFile" value="null" />
		<!-- Optional input file containing additional attributes for transit stop facilities, stored as ObjectAttributes. -->
		<param name="transitStopsAttributesFile" value="null" />
		<!-- Set this parameter to true if transit should be simulated, false if not. -->
		<param name="useTransit" value="false" />
		<param name="usingTransitInMobsim" value="true" />
		<!-- Input file containing the vehicles used by the departures in the transit schedule. -->
		<param name="vehiclesFile" value="null" />
	</module>
	<module name="transitRouter" >
		<!-- additional time the router allocates when a line switch happens. Can be interpreted as a 'safety' time that agents need to safely transfer from one line to another -->
		<param name="additionalTransferTime" value="0.0" />
		<!-- Factor with which direct walk generalized cost is multiplied before it is compared to the pt generalized cost.  Set to a very high value to reduce direct walk results. -->
		<param name="directWalkFactor" value="1.0" />
		<!-- step size to increase searchRadius if no stops are found -->
		<param name="extensionRadius" value="200.0" />
		<!-- maximum beeline distance between stops that agents could transfer to by walking -->
		<param name="maxBeelineWalkConnectionDistance" value="100.0" />
		<!-- the radius in which stop locations are searched, given a start or target coordinate -->
		<param name="searchRadius" value="1000.0" />
	</module>
	<module name="travelTimeCalculator" >
		<!-- (only for backwards compatibility; only used if separateModes==false && + filterModes==true)  Transport modes that will be respected by the travel time collector. 'car' is default which includes also buses from the pt simulation module. -->
		<param name="analyzedModes" value="car" />
		<param name="calculateLinkToLinkTravelTimes" value="false" />
		<param name="calculateLinkTravelTimes" value="true" />
		<!-- (only for backwards compatiblity; only used if separateModes==false)  Only modes included in analyzedModes are included. -->
		<param name="filterModes" value="false" />
		<!-- The lenght (in sec) of the time period that is splited into time bins; an additional time bin is created to aggregate all travel times collected after maxTime -->
		<param name="maxTime" value="108000" />
		<!-- (only for backwards compatibility) If false, link travel times are measured and aggregated over all vehicles using the link. -->
		<param name="separateModes" value="true" />
		<!-- How to deal with congested time bins that have no link entry events. `optimistic' assumes free speed (too optimistic); 'experimental_LastMile' is experimental and probably too pessimistic. -->
		<param name="travelTimeAggregator" value="optimistic" />
		<!-- The size of the time bin (in sec) into which the link travel times are aggregated for the router -->
		<param name="travelTimeBinSize" value="900.0" />
		<!-- How to deal with link entry times at different positions during the time bin. Currently supported: average, linearinterpolation -->
		<param name="travelTimeGetter" value="average" />
	</module>
	<module name="vehicles" >
		<param name="vehiclesFile" value="null" />
	</module>
	<module name="vspExperimental" >
		<!-- (do not use except of you have to) There was a problem with pt interaction scoring.  Some people solved it by overwriting the parameters of the pt interaction activity type.  Doing this now throws an Exception.  If you still insist on doing this, set the following to true. -->
		<param name="isAbleToOverwritePtInteractionParams" value="false" />
		<param name="isGeneratingBoardingDeniedEvent" value="false" />
		<!-- if an approximation of the opportunity cost of time is included into the radius calculation for location choice.`true' will be faster, but it is an approximation.  Default is `true'; `false' is available for backwards compatibility. -->
		<param name="isUsingOpportunityCostOfTimeForLocationChoice" value="true" />
		<param name="logitScaleParamForPlansRemoval" value="1.0" />
		<!-- Options: | ignore | info | warn | abort | .  When violating VSP defaults, this results in nothing, logfile infos, logfile warnings, or aborts.  Members of VSP should use `abort' or talk to kai. -->
		<param name="vspDefaultsCheckingLevel" value="ignore" />
		<!-- if true then writes output_events in output directory.  default is `false'. Will only work when lastIteration is multiple of events writing interval -->
		<param name="writingOutputEvents" value="true" />
	</module>

</config>

2024-12-18T21:57:30,616  INFO ControlerUtils:84 Complete config dump done.
2024-12-18T21:57:30,616  INFO ControlerUtils:85 Checking consistency of config...
2024-12-18T21:57:30,616  INFO VspConfigConsistencyCheckerImpl:68 NOT running vsp config consistency check because vsp defaults checking level is set to IGNORE
2024-12-18T21:57:30,621  WARN ConfigConsistencyCheckerImpl:167 Using lanes without enabling linktolinkrouting might not lead to expected simulation results
2024-12-18T21:57:30,621  INFO ControlerUtils:87 Checking consistency of config done.
2024-12-18T21:57:30,621  INFO PrepareForSimImpl:128 Network seems to be multimodal. Create car-only network which is handed over to PersonPrepareForSim.
2024-12-18T21:57:30,622  INFO NetworkImpl:165  node # 1
2024-12-18T21:57:30,623  INFO NetworkImpl:165  node # 4
2024-12-18T21:57:30,623  INFO NetworkImpl:165  node # 16
2024-12-18T21:57:30,623  INFO NetworkImpl:165  node # 64
2024-12-18T21:57:30,624  INFO NetworkImpl:165  node # 256
2024-12-18T21:57:30,625  INFO NetworkImpl:165  node # 1024
2024-12-18T21:57:30,628  INFO NetworkImpl:161  link # 1
2024-12-18T21:57:30,629  INFO NetworkImpl:161  link # 4
2024-12-18T21:57:30,629  INFO NetworkImpl:161  link # 16
2024-12-18T21:57:30,629  INFO NetworkImpl:161  link # 64
2024-12-18T21:57:30,631  INFO NetworkImpl:161  link # 256
2024-12-18T21:57:30,636  INFO NetworkImpl:161  link # 1024
2024-12-18T21:57:30,650  INFO NetworkImpl:161  link # 4096
2024-12-18T21:57:30,659  INFO Counter:70 [VehiclesImpl] added vehicle # 1
2024-12-18T21:57:30,659  INFO Counter:70 [VehiclesImpl] added vehicle # 2
2024-12-18T21:57:30,659  INFO Counter:70 [VehiclesImpl] added vehicle # 4
2024-12-18T21:57:30,659  INFO Counter:70 [VehiclesImpl] added vehicle # 8
2024-12-18T21:57:30,660  INFO Counter:70 [VehiclesImpl] added vehicle # 16
2024-12-18T21:57:30,660  INFO Counter:70 [VehiclesImpl] added vehicle # 32
2024-12-18T21:57:30,661  INFO Counter:70 [VehiclesImpl] added vehicle # 64
2024-12-18T21:57:30,662  INFO Counter:70 [VehiclesImpl] added vehicle # 128
2024-12-18T21:57:30,663  INFO Counter:70 [VehiclesImpl] added vehicle # 256
2024-12-18T21:57:30,665  INFO Counter:70 [VehiclesImpl] added vehicle # 512
2024-12-18T21:57:30,668  INFO Counter:70 [VehiclesImpl] added vehicle # 1024
2024-12-18T21:57:30,672  INFO Counter:70 [VehiclesImpl] added vehicle # 2048
2024-12-18T21:57:30,678  INFO Counter:70 [VehiclesImpl] added vehicle # 4096
2024-12-18T21:57:30,688  INFO Counter:70 [VehiclesImpl] added vehicle # 8192
2024-12-18T21:57:30,708  INFO Counter:70 [VehiclesImpl] added vehicle # 16384
2024-12-18T21:57:30,736  INFO Counter:70 [VehiclesImpl] added vehicle # 32768
2024-12-18T21:57:30,765  INFO Counter:70 [VehiclesImpl] added vehicle # 65536
2024-12-18T21:57:30,825  INFO Counter:70 [VehiclesImpl] added vehicle # 131072
2024-12-18T21:57:30,976  INFO Counter:70 [VehiclesImpl] added vehicle # 262144
2024-12-18T21:57:31,195  INFO Counter:70 [VehiclesImpl] added vehicle # 524288
2024-12-18T21:57:31,830  INFO SpeedyALTData:51 find dead ends...
2024-12-18T21:57:31,832  INFO SpeedyALTData:132 calculate landmarks...
2024-12-18T21:57:31,976  INFO SpeedyALTData:173 calculate min travelcost...
2024-12-18T21:57:31,979  INFO NetworkImpl:165  node # 1
2024-12-18T21:57:31,980  INFO NetworkImpl:165  node # 4
2024-12-18T21:57:31,980  INFO NetworkImpl:165  node # 16
2024-12-18T21:57:31,980  INFO NetworkImpl:165  node # 64
2024-12-18T21:57:31,981  INFO NetworkImpl:165  node # 256
2024-12-18T21:57:31,981  INFO NetworkImpl:165  node # 1024
2024-12-18T21:57:31,984  INFO NetworkImpl:161  link # 1
2024-12-18T21:57:31,984  INFO NetworkImpl:161  link # 4
2024-12-18T21:57:31,984  INFO NetworkImpl:161  link # 16
2024-12-18T21:57:31,985  INFO NetworkImpl:161  link # 64
2024-12-18T21:57:31,986  INFO NetworkImpl:161  link # 256
2024-12-18T21:57:31,989  INFO NetworkImpl:161  link # 1024
2024-12-18T21:57:31,999  INFO NetworkImpl:161  link # 4096
2024-12-18T21:57:32,003  WARN RandomizingTimeDistanceTravelDisutilityFactory:118 There will be no routing randomness. The randomization of the travel disutility requires the travel time cost rate to be different than zero. Continuing anyway.
2024-12-18T21:57:32,005  INFO RandomizingTimeDistanceTravelDisutilityFactory:86  sigma: 3.0; resulting normalization: 0.011108996538242306
2024-12-18T21:57:32,009  INFO SpeedyALTData:51 find dead ends...
2024-12-18T21:57:32,010  INFO SpeedyALTData:132 calculate landmarks...
2024-12-18T21:57:32,054  INFO SpeedyALTData:173 calculate min travelcost...
2024-12-18T21:57:32,058  INFO SpeedyALTData:51 find dead ends...
2024-12-18T21:57:32,060  INFO SpeedyALTData:132 calculate landmarks...
2024-12-18T21:57:32,096  INFO SpeedyALTData:173 calculate min travelcost...
2024-12-18T21:57:32,101  INFO RandomizingTimeDistanceTravelDisutilityFactory:86  sigma: 3.0; resulting normalization: 0.011108996538242306
2024-12-18T21:57:32,171  INFO NetworkImpl:419 building QuadTree for nodes: xrange(540450.5299032889,559463.3551089474); yrange(4154922.951197087,4193344.909352815)
2024-12-18T21:57:32,184  INFO NetworkImpl:428 Building QuadTree took 0.015 seconds.
2024-12-18T21:57:32,185  INFO Counter:70 [PersonPrepareForSim] handled person # 1
2024-12-18T21:57:32,185  INFO Counter:70 [PersonPrepareForSim] handled person # 4
2024-12-18T21:57:32,185  INFO Counter:70 [PersonPrepareForSim] handled person # 2
2024-12-18T21:57:32,186  INFO Counter:70 [PersonPrepareForSim] handled person # 8
2024-12-18T21:57:32,186  INFO Counter:70 [PersonPrepareForSim] handled person # 16
2024-12-18T21:57:32,187  INFO Counter:70 [PersonPrepareForSim] handled person # 32
2024-12-18T21:57:32,189  INFO Counter:70 [PersonPrepareForSim] handled person # 64
2024-12-18T21:57:32,191  INFO Counter:70 [PersonPrepareForSim] handled person # 128
2024-12-18T21:57:32,195  INFO Counter:70 [PersonPrepareForSim] handled person # 256
2024-12-18T21:57:32,200  INFO Counter:70 [PersonPrepareForSim] handled person # 512
2024-12-18T21:57:32,207  INFO Counter:70 [PersonPrepareForSim] handled person # 1024
2024-12-18T21:57:32,214  INFO Counter:70 [PersonPrepareForSim] handled person # 2048
2024-12-18T21:57:32,232  INFO Counter:70 [PersonPrepareForSim] handled person # 4096
2024-12-18T21:57:32,292  INFO Counter:70 [PersonPrepareForSim] handled person # 8192
2024-12-18T21:57:32,355  INFO Counter:70 [PersonPrepareForSim] handled person # 16384
2024-12-18T21:57:32,442  INFO Counter:70 [PersonPrepareForSim] handled person # 32768
2024-12-18T21:57:32,632  INFO Counter:70 [PersonPrepareForSim] handled person # 65536
2024-12-18T21:57:32,760  INFO Counter:70 [PersonPrepareForSim] handled person # 131072
2024-12-18T21:57:32,966  INFO Counter:70 [PersonPrepareForSim] handled person # 262144
2024-12-18T21:57:33,335  INFO Counter:70 [PersonPrepareForSim] handled person # 524288
2024-12-18T21:57:33,833  INFO Counter:75 [PersonPrepareForSim] handled person # 873965
2024-12-18T21:57:33,870  INFO AbstractController:136 ###################################################
2024-12-18T21:57:33,870  INFO AbstractController:137 ### ITERATION 0 BEGINS
2024-12-18T21:57:33,872  INFO ControlerListenerManagerImpl:156 calling notifyIterationStarts on org.matsim.analysis.LegHistogramListener with priority 0.0
2024-12-18T21:57:33,872  INFO ControlerListenerManagerImpl:156 calling notifyIterationStarts on org.matsim.analysis.LinkStatsControlerListener with priority 0.0
2024-12-18T21:57:33,872  INFO ControlerListenerManagerImpl:156 calling notifyIterationStarts on org.matsim.core.replanning.ReplanningContextImpl with priority 0.0
2024-12-18T21:57:33,872  INFO ControlerListenerManagerImpl:156 calling notifyIterationStarts on org.matsim.core.scoring.ScoringFunctionsForPopulation$$Lambda$233/0x00007f5cd0350f68 with priority 0.0
2024-12-18T21:57:34,513  INFO ControlerListenerManagerImpl:156 calling notifyIterationStarts on org.matsim.core.scoring.ExperiencedPlansServiceImpl$1 with priority 0.0
2024-12-18T21:57:34,569  INFO ControlerListenerManagerImpl:159 [it.0] all ControlerIterationStartsListeners called.
2024-12-18T21:57:34,570  INFO ControlerListenerManagerImpl:242 calling notifyBeforeMobsim on org.matsim.core.controler.corelisteners.EventsHandlingImpl with priority 0.0
2024-12-18T21:57:34,570  INFO EventsManagerImpl:168 resetting Event-Handlers
2024-12-18T21:57:34,570  INFO EventsManagerImpl:175   org.matsim.core.trafficmonitoring.TravelTimeCalculator
2024-12-18T21:57:34,570  INFO EventsManagerImpl:175   org.matsim.analysis.VolumesAnalyzer
2024-12-18T21:57:34,570  INFO EventsManagerImpl:175   org.matsim.core.scoring.ScoringFunctionsForPopulation
2024-12-18T21:57:34,573  INFO EventsManagerImpl:175   org.matsim.analysis.LegHistogram
2024-12-18T21:57:34,573  INFO EventsManagerImpl:175   org.matsim.analysis.CalcLegTimes
2024-12-18T21:57:34,577  INFO EventsManagerImpl:138 adding Event-Handler: org.matsim.core.events.algorithms.EventWriterXML
2024-12-18T21:57:34,577  INFO EventsManagerImpl:144   org.matsim.core.events.algorithms.EventWriter
2024-12-18T21:57:34,577  INFO EventsManagerImpl:144   org.matsim.core.events.handler.BasicEventHandler
2024-12-18T21:57:34,577  INFO EventsManagerImpl:205     > org.matsim.api.core.v01.events.Event
2024-12-18T21:57:34,577  INFO EventsManagerImpl:154 
2024-12-18T21:57:34,577  INFO EventsManagerImpl:138 adding Event-Handler: org.matsim.core.events.algorithms.EventWriterXML
2024-12-18T21:57:34,577  INFO EventsManagerImpl:144   org.matsim.core.events.algorithms.EventWriter
2024-12-18T21:57:34,577  INFO EventsManagerImpl:144   org.matsim.core.events.handler.BasicEventHandler
2024-12-18T21:57:34,577  INFO EventsManagerImpl:205     > org.matsim.api.core.v01.events.Event
2024-12-18T21:57:34,577  INFO EventsManagerImpl:154 
2024-12-18T21:57:34,577  INFO ControlerListenerManagerImpl:242 calling notifyBeforeMobsim on org.matsim.core.controler.corelisteners.PlansDumpingImpl with priority 0.0
2024-12-18T21:57:34,577  INFO PlansDumpingImpl:77 dumping plans...
2024-12-18T21:57:34,940  INFO Counter:70 [PopulationWriter] dumped person # 1
2024-12-18T21:57:34,940  INFO Counter:70 [PopulationWriter] dumped person # 2
2024-12-18T21:57:34,940  INFO Counter:70 [PopulationWriter] dumped person # 4
2024-12-18T21:57:34,940  INFO Counter:70 [PopulationWriter] dumped person # 8
2024-12-18T21:57:34,940  INFO Counter:70 [PopulationWriter] dumped person # 16
2024-12-18T21:57:34,940  INFO Counter:70 [PopulationWriter] dumped person # 32
2024-12-18T21:57:34,941  INFO Counter:70 [PopulationWriter] dumped person # 64
2024-12-18T21:57:34,941  INFO Counter:70 [PopulationWriter] dumped person # 128
2024-12-18T21:57:34,942  INFO Counter:70 [PopulationWriter] dumped person # 256
2024-12-18T21:57:34,942  INFO Counter:70 [PopulationWriter] dumped person # 512
2024-12-18T21:57:34,949  INFO Counter:70 [ParallelPopulationWriterV6] dumped person # 1
2024-12-18T21:57:34,949  INFO Counter:70 [ParallelPopulationWriterV6] dumped person # 2
2024-12-18T21:57:34,950  INFO Counter:70 [ParallelPopulationWriterV6] dumped person # 4
2024-12-18T21:57:34,950  INFO Counter:70 [ParallelPopulationWriterV6] dumped person # 8
2024-12-18T21:57:34,950  INFO Counter:70 [ParallelPopulationWriterV6] dumped person # 16
2024-12-18T21:57:34,951  INFO Counter:70 [PopulationWriter] dumped person # 1024
2024-12-18T21:57:34,951  INFO Counter:70 [ParallelPopulationWriterV6] dumped person # 32
2024-12-18T21:57:34,953  INFO Counter:70 [ParallelPopulationWriterV6] dumped person # 64
2024-12-18T21:57:34,957  INFO Counter:70 [ParallelPopulationWriterV6] dumped person # 128
2024-12-18T21:57:34,963  INFO Counter:70 [ParallelPopulationWriterV6] dumped person # 256
2024-12-18T21:57:34,973  INFO Counter:70 [ParallelPopulationWriterV6] dumped person # 512
2024-12-18T21:57:34,988  INFO Counter:70 [ParallelPopulationWriterV6] dumped person # 1024
2024-12-18T21:57:34,989  INFO Counter:70 [PopulationWriter] dumped person # 2048
2024-12-18T21:57:35,007  INFO Counter:70 [ParallelPopulationWriterV6] dumped person # 2048
2024-12-18T21:57:35,025  INFO Counter:70 [PopulationWriter] dumped person # 4096
2024-12-18T21:57:35,038  INFO Counter:70 [ParallelPopulationWriterV6] dumped person # 4096
2024-12-18T21:57:35,082  INFO Counter:70 [PopulationWriter] dumped person # 8192
2024-12-18T21:57:35,095  INFO Counter:70 [ParallelPopulationWriterV6] dumped person # 8192
2024-12-18T21:57:35,193  INFO Counter:70 [PopulationWriter] dumped person # 16384
2024-12-18T21:57:35,207  INFO Counter:70 [ParallelPopulationWriterV6] dumped person # 16384
2024-12-18T21:57:35,413  INFO Counter:70 [PopulationWriter] dumped person # 32768
2024-12-18T21:57:35,426  INFO Counter:70 [ParallelPopulationWriterV6] dumped person # 32768
2024-12-18T21:57:35,804  INFO Counter:70 [PopulationWriter] dumped person # 65536
2024-12-18T21:57:35,813  INFO Counter:70 [ParallelPopulationWriterV6] dumped person # 65536
2024-12-18T21:57:36,444  INFO Counter:70 [PopulationWriter] dumped person # 131072
2024-12-18T21:57:36,455  INFO Counter:70 [ParallelPopulationWriterV6] dumped person # 131072
2024-12-18T21:57:37,744  INFO Counter:70 [PopulationWriter] dumped person # 262144
2024-12-18T21:57:37,755  INFO Counter:70 [ParallelPopulationWriterV6] dumped person # 262144
2024-12-18T21:57:40,885  INFO Counter:70 [PopulationWriter] dumped person # 524288
2024-12-18T21:57:40,895  INFO Counter:70 [ParallelPopulationWriterV6] dumped person # 524288
2024-12-18T21:57:44,483  INFO Counter:75 [ParallelPopulationWriterV6] dumped person # 873965
2024-12-18T21:57:44,483  INFO PopulationWriter:150 Population written to: scenarios/equil/output/run_20241218_215721/ITERS/it.0/0.plans.xml.gz
2024-12-18T21:57:44,484  INFO Counter:75 [PopulationWriter] dumped person # 873965
2024-12-18T21:57:44,484  INFO PlansDumpingImpl:94 finished plans dump.
2024-12-18T21:57:44,485  INFO ControlerListenerManagerImpl:248 calling notifyBeforeMobsim on org.matsim.core.population.VspPlansCleaner with priority 0.0
2024-12-18T21:57:44,614  INFO ControlerListenerManagerImpl:251 [it.0] all ControlerBeforeMobsimListeners called.
2024-12-18T21:57:44,614  INFO PrepareForMobsimImpl:86 Network seems to be multimodal. Create car-only network which is handed over to PersonPrepareForSim.
2024-12-18T21:57:44,615  INFO NetworkImpl:165  node # 1
2024-12-18T21:57:44,615  INFO NetworkImpl:165  node # 4
2024-12-18T21:57:44,615  INFO NetworkImpl:165  node # 16
2024-12-18T21:57:44,615  INFO NetworkImpl:165  node # 64
2024-12-18T21:57:44,615  INFO NetworkImpl:165  node # 256
2024-12-18T21:57:44,616  INFO NetworkImpl:165  node # 1024
2024-12-18T21:57:44,617  INFO NetworkImpl:161  link # 1
2024-12-18T21:57:44,617  INFO NetworkImpl:161  link # 4
2024-12-18T21:57:44,617  INFO NetworkImpl:161  link # 16
2024-12-18T21:57:44,617  INFO NetworkImpl:161  link # 64
2024-12-18T21:57:44,618  INFO NetworkImpl:161  link # 256
2024-12-18T21:57:44,620  INFO NetworkImpl:161  link # 1024
2024-12-18T21:57:44,626  INFO NetworkImpl:161  link # 4096
2024-12-18T21:57:44,630  INFO RandomizingTimeDistanceTravelDisutilityFactory:86  sigma: 3.0; resulting normalization: 0.011108996538242306
2024-12-18T21:57:44,632  INFO RandomizingTimeDistanceTravelDisutilityFactory:86  sigma: 3.0; resulting normalization: 0.011108996538242306
2024-12-18T21:57:44,689  INFO Counter:70 [PersonPrepareForSim] handled person # 2
2024-12-18T21:57:44,689  INFO Counter:70 [PersonPrepareForSim] handled person # 1
2024-12-18T21:57:44,689  INFO Counter:70 [PersonPrepareForSim] handled person # 8
2024-12-18T21:57:44,689  INFO Counter:70 [PersonPrepareForSim] handled person # 4
2024-12-18T21:57:44,689  INFO Counter:70 [PersonPrepareForSim] handled person # 16
2024-12-18T21:57:44,689  INFO Counter:70 [PersonPrepareForSim] handled person # 32
2024-12-18T21:57:44,690  INFO Counter:70 [PersonPrepareForSim] handled person # 64
2024-12-18T21:57:44,690  INFO Counter:70 [PersonPrepareForSim] handled person # 128
2024-12-18T21:57:44,690  INFO Counter:70 [PersonPrepareForSim] handled person # 256
2024-12-18T21:57:44,690  INFO Counter:70 [PersonPrepareForSim] handled person # 512
2024-12-18T21:57:44,691  INFO Counter:70 [PersonPrepareForSim] handled person # 1024
2024-12-18T21:57:44,692  INFO Counter:70 [PersonPrepareForSim] handled person # 2048
2024-12-18T21:57:44,694  INFO Counter:70 [PersonPrepareForSim] handled person # 4096
2024-12-18T21:57:44,695  INFO Counter:70 [PersonPrepareForSim] handled person # 8192
2024-12-18T21:57:44,698  INFO Counter:70 [PersonPrepareForSim] handled person # 16384
2024-12-18T21:57:44,704  INFO Counter:70 [PersonPrepareForSim] handled person # 32768
2024-12-18T21:57:44,715  INFO Counter:70 [PersonPrepareForSim] handled person # 65536
2024-12-18T21:57:44,737  INFO Counter:70 [PersonPrepareForSim] handled person # 131072
2024-12-18T21:57:44,774  INFO Counter:70 [PersonPrepareForSim] handled person # 262144
2024-12-18T21:57:44,809  INFO Counter:70 [PersonPrepareForSim] handled person # 524288
2024-12-18T21:57:44,854  INFO Counter:75 [PersonPrepareForSim] handled person # 873965
2024-12-18T21:57:44,935  INFO MobsimListenerManager:50 calling addQueueSimulationListener
2024-12-18T21:57:44,936  INFO MobsimListenerManager:54   assigned class org.matsim.core.mobsim.framework.listeners.MobsimListener to interface org.matsim.core.mobsim.framework.listeners.MobsimAfterSimStepListener
2024-12-18T21:57:44,936  INFO MobsimListenerManager:54   assigned class org.matsim.core.mobsim.framework.listeners.MobsimListener to interface org.matsim.vis.snapshotwriters.SnapshotWriterManager
2024-12-18T21:57:44,936  INFO MobsimListenerManager:54   assigned class org.matsim.core.mobsim.framework.listeners.MobsimListener to interface org.matsim.core.mobsim.framework.listeners.MobsimInitializedListener
2024-12-18T21:57:44,936  INFO MobsimListenerManager:54   assigned class org.matsim.core.mobsim.framework.listeners.MobsimListener to interface org.matsim.core.mobsim.framework.listeners.MobsimListener
2024-12-18T21:57:44,936  INFO MobsimListenerManager:54   assigned class org.matsim.core.mobsim.framework.listeners.MobsimListener to interface org.matsim.core.mobsim.framework.listeners.MobsimBeforeCleanupListener
2024-12-18T21:57:44,943  INFO QSimProvider:131 Added MobsimEngine class org.matsim.core.mobsim.qsim.ActivityEngineDefaultImpl
2024-12-18T21:57:44,943  INFO QSimProvider:137 Added Activityhandler class org.matsim.core.mobsim.qsim.ActivityEngineDefaultImpl
2024-12-18T21:57:44,961  WARN QueueWithBuffer:500 Link 10068307960002f too small: enlarge storage capacity from: 12.300728630918531 Vehicles to: 12.891220410895958 Vehicles.  This is not fatal, but modifies the traffic flow dynamics.
2024-12-18T21:57:44,961  WARN QueueWithBuffer:500 Link 10068307960002r too small: enlarge storage capacity from: 8.200485753945687 Vehicles to: 8.594146940597305 Vehicles.  This is not fatal, but modifies the traffic flow dynamics.
2024-12-18T21:57:44,961  WARN QueueWithBuffer:500 Link 1015553310001f too small: enlarge storage capacity from: 4.0622483526714666 Vehicles to: 4.849518573893665 Vehicles.  This is not fatal, but modifies the traffic flow dynamics.
2024-12-18T21:57:44,962  WARN QueueWithBuffer:500 Link 10370677300001f too small: enlarge storage capacity from: 4.8073971391129025 Vehicles to: 5.974356183777864 Vehicles.  This is not fatal, but modifies the traffic flow dynamics.
2024-12-18T21:57:44,962  WARN QueueWithBuffer:500 Link 10413495490001f too small: enlarge storage capacity from: 1.9272508696835657 Vehicles to: 2.594116865131002 Vehicles.  This is not fatal, but modifies the traffic flow dynamics.
2024-12-18T21:57:44,962  WARN QueueWithBuffer:500 Link 10413599840000f too small: enlarge storage capacity from: 6.728969221743504 Vehicles to: 7.623492299525292 Vehicles.  This is not fatal, but modifies the traffic flow dynamics.
2024-12-18T21:57:44,963  WARN QueueWithBuffer:500 Link 10538620160000f too small: enlarge storage capacity from: 12.933359878953723 Vehicles to: 14.867432372760312 Vehicles.  This is not fatal, but modifies the traffic flow dynamics.
2024-12-18T21:57:44,963  WARN QueueWithBuffer:500 Link 10546499840000f too small: enlarge storage capacity from: 0.8028099897396065 Vehicles to: 1.2670394598900487 Vehicles.  This is not fatal, but modifies the traffic flow dynamics.
2024-12-18T21:57:44,964  WARN QueueWithBuffer:500 Link 10546499840000r too small: enlarge storage capacity from: 0.8028099897396065 Vehicles to: 1.2670394598900487 Vehicles.  This is not fatal, but modifies the traffic flow dynamics.
2024-12-18T21:57:44,964  WARN QueueWithBuffer:500 Link 10627669770000f too small: enlarge storage capacity from: 3.0150426719320538 Vehicles to: 4.294171577875533 Vehicles.  This is not fatal, but modifies the traffic flow dynamics.
2024-12-18T21:57:44,964  WARN QueueWithBuffer:500 Link 1069639280001f too small: enlarge storage capacity from: 6.046337933817413 Vehicles to: 7.1177025738749125 Vehicles.  This is not fatal, but modifies the traffic flow dynamics.
2024-12-18T21:57:44,965  WARN QueueWithBuffer:503 Additional warnings of this type are suppressed.
2024-12-18T21:57:45,000  INFO QSimProvider:143 Added DepartureHandler class org.matsim.core.mobsim.qsim.qnetsimengine.VehicularDepartureHandler
2024-12-18T21:57:45,000  INFO QSimProvider:131 Added MobsimEngine class org.matsim.core.mobsim.qsim.qnetsimengine.QNetsimEngineWithThreadpool
2024-12-18T21:57:45,001  INFO QSimProvider:131 Added MobsimEngine class org.matsim.core.mobsim.qsim.DefaultTeleportationEngine
2024-12-18T21:57:45,001  INFO QSimProvider:143 Added DepartureHandler class org.matsim.core.mobsim.qsim.DefaultTeleportationEngine
2024-12-18T21:57:45,001  INFO QSimProvider:149 Added AgentSource class org.matsim.core.mobsim.qsim.agents.PopulationAgentSource
2024-12-18T21:57:45,001  INFO MobsimListenerManager:50 calling addQueueSimulationListener
2024-12-18T21:57:45,002  INFO MobsimListenerManager:54   assigned class org.matsim.core.mobsim.framework.listeners.MobsimListener to interface org.matsim.core.mobsim.qsim.messagequeueengine.MessageQueueEngine
2024-12-18T21:57:45,002  INFO MobsimListenerManager:54   assigned class org.matsim.core.mobsim.framework.listeners.MobsimListener to interface org.matsim.core.mobsim.framework.listeners.MobsimBeforeSimStepListener
2024-12-18T21:57:45,002  INFO MobsimListenerManager:54   assigned class org.matsim.core.mobsim.framework.listeners.MobsimListener to interface org.matsim.core.mobsim.framework.listeners.MobsimListener
2024-12-18T21:57:45,002  INFO QSimProvider:155 Added MobsimListener class org.matsim.core.mobsim.qsim.messagequeueengine.MessageQueueEngine
2024-12-18T21:57:45,015  INFO PopulationUtils:1247 adding scenario element for allpersons container
2024-12-18T21:57:45,015  INFO PopulationImpl:107  person # 1
2024-12-18T21:57:45,016  INFO PopulationImpl:107  person # 4
2024-12-18T21:57:45,016  INFO PopulationImpl:107  person # 16
2024-12-18T21:57:45,017  INFO PopulationImpl:107  person # 64
2024-12-18T21:57:45,019  INFO PopulationImpl:107  person # 256
2024-12-18T21:57:45,024  INFO PopulationImpl:107  person # 1024
2024-12-18T21:57:45,031  INFO PopulationImpl:107  person # 4096
2024-12-18T21:57:45,047  INFO PopulationImpl:107  person # 16384
2024-12-18T21:57:45,114  INFO PopulationImpl:107  person # 65536
2024-12-18T21:57:45,308  INFO PopulationImpl:107  person # 262144
2024-12-18T21:57:45,862  INFO AbstractQNetsimEngine:426 Assigned 3922 nodes and 4661 links to QSimEngineRunner #0
2024-12-18T21:57:46,653  INFO EventsManagerImpl:115  event # 1
2024-12-18T21:57:46,654  INFO EventsManagerImpl:115  event # 4
2024-12-18T21:57:46,655  INFO EventsManagerImpl:115  event # 16
2024-12-18T21:57:46,657  INFO EventsManagerImpl:115  event # 64
2024-12-18T21:57:46,664  INFO EventsManagerImpl:115  event # 256
2024-12-18T21:57:46,679  INFO EventsManagerImpl:115  event # 1024
2024-12-18T21:57:46,709  INFO EventsManagerImpl:115  event # 4096
2024-12-18T21:57:46,800  INFO EventsManagerImpl:115  event # 16384
2024-12-18T21:57:47,412  INFO EventsManagerImpl:115  event # 65536
2024-12-18T21:57:48,559  INFO EventsManagerImpl:115  event # 262144
2024-12-18T21:57:49,466  INFO AbstractQNetsimEngine:364 SIMULATION (QNetsimEngine) AT 08:00:00 : #links=0 #nodes=0
2024-12-18T21:57:49,471  INFO QSim:566 SIMULATION (NEW QSim) AT 08:00:00 : #Veh=0 lost=0 simT=0.0s realT=4s; (s/r): 0.0
2024-12-18T21:57:52,804  INFO EventsManagerImpl:115  event # 1048576
2024-12-18T21:57:56,388  INFO AbstractController$9:237 ### ITERATION 0 fires after mobsim event
2024-12-18T21:57:56,388  INFO Gbl:196 Thread performance: Thread=class org.matsim.core.events.SimStepParallelEventsManagerImpl$ProcessEventsRunnable0  cpu-time=8.948413675sec
2024-12-18T21:57:56,389  INFO ControlerListenerManagerImpl:269 calling notifyAfterMobsim on org.matsim.analysis.LegTimesControlerListener with priority 0.0
2024-12-18T21:57:56,391  INFO LegTimesControlerListener:51 [0] average trip (probably: leg) duration is: 0 seconds = 00:00:00
2024-12-18T21:57:56,391  INFO ControlerListenerManagerImpl:269 calling notifyAfterMobsim on org.matsim.core.events.MobsimScopeEventHandling with priority 0.0
2024-12-18T21:57:56,392  INFO ControlerListenerManagerImpl:269 calling notifyAfterMobsim on org.matsim.core.scoring.EventsToActivities$1 with priority 0.0
2024-12-18T21:57:56,393  WARN CharyparNagelActivityScoring:247 The first and the last activity do not have the same type. 
2024-12-18T21:57:56,393  WARN CharyparNagelActivityScoring:248 Will score the first activity from midnight to its end, and the last activity from its start to midnight.
2024-12-18T21:57:56,393  WARN CharyparNagelActivityScoring:249 Because of the nonlinear function, this is not the same as scoring from start to end.
2024-12-18T21:57:56,397  WARN CharyparNagelActivityScoring:250 first activity: act [type=home][coord=[x=551249.6193057318 | y=4184707.713080479]][linkId=7750830290000f][startTime=undefined][endTime=08:00:00][duration=undefined][facilityId=null]
2024-12-18T21:57:56,397  WARN CharyparNagelActivityScoring:251 last activity: act [type=work][coord=[x=551759.2274258013 | y=4184696.894369765]][linkId=7750830290000f][startTime=08:00:00][endTime=undefined][duration=undefined][facilityId=null]
2024-12-18T21:57:56,397  WARN CharyparNagelActivityScoring:252 This may also happen when plans are not completed when the simulation ends.
2024-12-18T21:57:56,397  WARN CharyparNagelActivityScoring:254 Additional warnings of this type are suppressed.
2024-12-18T21:57:56,900  INFO ControlerListenerManagerImpl:272 [it.0] all ControlerAfterMobsimListeners called.
2024-12-18T21:57:56,900  INFO AbstractController$4:162 ### ITERATION 0 fires scoring event
2024-12-18T21:57:56,901  INFO ControlerListenerManagerImpl:197 calling notifyScoring on org.matsim.core.scoring.PlansScoringImpl with priority 0.0
2024-12-18T21:57:57,233  INFO NewScoreAssignerImpl:58 it: 0 msaStart: null
2024-12-18T21:57:57,480  INFO ControlerListenerManagerImpl:209 [it.0] all ControlerScoringListeners called.
2024-12-18T21:57:57,481  INFO AbstractController$5:170 ### ITERATION 0 fires iteration end event
2024-12-18T21:57:57,481  INFO ControlerListenerManagerImpl:172 calling notifyIterationEnds on org.matsim.core.controler.corelisteners.EventsHandlingImpl with priority 0.0
2024-12-18T21:57:57,482  INFO EventsManagerImpl:159 removing Event-Handler: org.matsim.core.events.algorithms.EventWriterXML
2024-12-18T21:57:57,482  INFO EventsManagerImpl:159 removing Event-Handler: org.matsim.core.events.algorithms.EventWriterXML
2024-12-18T21:57:57,482  INFO ControlerListenerManagerImpl:172 calling notifyIterationEnds on org.matsim.core.scoring.PlansScoringImpl with priority 0.0
2024-12-18T21:57:57,698  INFO ControlerListenerManagerImpl:180 calling notifyIterationEnds on org.matsim.counts.CountsControlerListener with priority 0.0
2024-12-18T21:57:57,698  INFO ControlerListenerManagerImpl:180 calling notifyIterationEnds on org.matsim.analysis.ModeStatsControlerListener with priority 0.0
2024-12-18T21:57:57,818  INFO ModeStatsControlerListener:133 Mode shares over all 0.0 trips found. MainModeIdentifier: class org.matsim.core.router.DefaultAnalysisMainModeIdentifier
2024-12-18T21:57:57,819  INFO ControlerListenerManagerImpl:180 calling notifyIterationEnds on org.matsim.analysis.ScoreStatsControlerListener with priority 0.0
2024-12-18T21:57:57,914  INFO ScoreStatsControlerListener:154 -- avg. score of the executed plan of each agent: 101.51740267879546
2024-12-18T21:57:57,914  INFO ScoreStatsControlerListener:155 -- avg. score of the worst plan of each agent: 101.51740267879546
2024-12-18T21:57:57,914  INFO ScoreStatsControlerListener:156 -- avg. of the avg. plan score per agent: 101.51740267879546
2024-12-18T21:57:57,914  INFO ScoreStatsControlerListener:157 -- avg. score of the best plan of each agent: 101.51740267879546
2024-12-18T21:57:57,920  INFO ControlerListenerManagerImpl:180 calling notifyIterationEnds on org.matsim.analysis.IterationTravelStatsControlerListener with priority 0.0
2024-12-18T21:57:58,021  INFO TravelDistanceStats:115 -- average leg distance per plan (executed plans only): 0.0 meters
2024-12-18T21:57:58,021  INFO TravelDistanceStats:116 average leg distance per Person (executed plans only): 0.0 meters (statistic on all 0 legs which have a finite distance)
2024-12-18T21:57:58,021  INFO TravelDistanceStats:117 -- average trip distance per plan (executed plans only): 0.0 meters
2024-12-18T21:57:58,021  INFO TravelDistanceStats:118 average trip distance per Person (executed plans only): 0.0 meters (statistic on all 0 trips which have a finite distance)
2024-12-18T21:57:58,021  INFO TravelDistanceStats:119 (TravelDistanceStats takes an average over all legs where the simulation reports travelled (network) distances
2024-12-18T21:57:58,021  INFO TravelDistanceStats:120 (and teleported legs whose route contains a distance.)
2024-12-18T21:57:58,270  INFO ActivityWriter:39 Writing all Activities to activitiescsv
2024-12-18T21:58:07,439  INFO ActivityWriter:59 ...done
2024-12-18T21:58:07,439  INFO ControlerListenerManagerImpl:180 calling notifyIterationEnds on org.matsim.analysis.LegHistogramListener with priority 0.0
2024-12-18T21:58:07,444  INFO LegHistogramListener:73 number of legs:	0	100%
2024-12-18T21:58:07,531  INFO ControlerListenerManagerImpl:180 calling notifyIterationEnds on org.matsim.analysis.LinkStatsControlerListener with priority 0.0
2024-12-18T21:58:07,532  INFO ControlerListenerManagerImpl:184 [it.0] all ControlerIterationEndsListeners called.
2024-12-18T21:58:07,614  INFO AbstractController:184 ### ITERATION 0 ENDS
2024-12-18T21:58:07,614  INFO AbstractController:185 ###################################################
2024-12-18T21:58:07,614  INFO AbstractController:136 ###################################################
2024-12-18T21:58:07,615  INFO AbstractController:137 ### ITERATION 1 BEGINS
2024-12-18T21:58:07,615  INFO ControlerListenerManagerImpl:156 calling notifyIterationStarts on org.matsim.analysis.LegHistogramListener with priority 0.0
2024-12-18T21:58:07,615  INFO ControlerListenerManagerImpl:156 calling notifyIterationStarts on org.matsim.analysis.LinkStatsControlerListener with priority 0.0
2024-12-18T21:58:07,615  INFO ControlerListenerManagerImpl:156 calling notifyIterationStarts on org.matsim.core.replanning.ReplanningContextImpl with priority 0.0
2024-12-18T21:58:07,615  INFO ControlerListenerManagerImpl:156 calling notifyIterationStarts on org.matsim.core.scoring.ScoringFunctionsForPopulation$$Lambda$233/0x00007f5cd0350f68 with priority 0.0
2024-12-18T21:58:08,561  INFO ControlerListenerManagerImpl:156 calling notifyIterationStarts on org.matsim.core.scoring.ExperiencedPlansServiceImpl$1 with priority 0.0
2024-12-18T21:58:08,607  INFO ControlerListenerManagerImpl:159 [it.1] all ControlerIterationStartsListeners called.
2024-12-18T21:58:08,608  INFO ControlerListenerManagerImpl:221 calling notifyReplanning on org.matsim.core.controler.corelisteners.PlansReplanningImpl with priority 0.0
2024-12-18T21:58:08,609  INFO RandomizingTimeDistanceTravelDisutilityFactory:86  sigma: 3.0; resulting normalization: 0.011108996538242306
2024-12-18T21:58:08,609  INFO RandomizingTimeDistanceTravelDisutilityFactory:86  sigma: 3.0; resulting normalization: 0.011108996538242306
2024-12-18T21:58:08,927  INFO GenericPlanStrategyImpl:135 Plan-Strategy finished, 786510 plans handled. Strategy: BestPlanSelector
2024-12-18T21:58:08,927  INFO AbstractMultithreadedModule:142 [PlanRouter] starting 2 threads, handling 87455 plans
2024-12-18T21:58:08,928  INFO Counter:70 [PlanRouter] handled plan # 1
2024-12-18T21:58:08,928  INFO Counter:70 [PlanRouter] handled plan # 4
2024-12-18T21:58:08,928  INFO Counter:70 [PlanRouter] handled plan # 8
2024-12-18T21:58:08,928  INFO Counter:70 [PlanRouter] handled plan # 2
2024-12-18T21:58:08,928  INFO Counter:70 [PlanRouter] handled plan # 16
2024-12-18T21:58:08,928  INFO Counter:70 [PlanRouter] handled plan # 64
2024-12-18T21:58:08,928  INFO Counter:70 [PlanRouter] handled plan # 32
2024-12-18T21:58:08,928  INFO Counter:70 [PlanRouter] handled plan # 128
2024-12-18T21:58:08,929  INFO Counter:70 [PlanRouter] handled plan # 256
2024-12-18T21:58:08,929  INFO Counter:70 [PlanRouter] handled plan # 512
2024-12-18T21:58:08,929  INFO Counter:70 [PlanRouter] handled plan # 1024
2024-12-18T21:58:08,929  INFO Counter:70 [PlanRouter] handled plan # 2048
2024-12-18T21:58:08,930  INFO Counter:70 [PlanRouter] handled plan # 4096
2024-12-18T21:58:08,931  INFO Counter:70 [PlanRouter] handled plan # 8192
2024-12-18T21:58:08,932  INFO Counter:70 [PlanRouter] handled plan # 16384
2024-12-18T21:58:08,936  INFO Counter:70 [PlanRouter] handled plan # 32768
2024-12-18T21:58:08,942  INFO Counter:70 [PlanRouter] handled plan # 65536
2024-12-18T21:58:08,944  INFO AbstractMultithreadedModule:157 [PlanRouter] all 2 threads finished.
2024-12-18T21:58:08,944  INFO GenericPlanStrategyImpl:135 Plan-Strategy finished, 87455 plans handled. Strategy: RandomPlanSelector_ReRoute
2024-12-18T21:58:08,945  INFO ControlerListenerManagerImpl:230 [it.1] all ControlerReplanningListeners called.
2024-12-18T21:58:08,945  INFO ControlerListenerManagerImpl:242 calling notifyBeforeMobsim on org.matsim.core.controler.corelisteners.EventsHandlingImpl with priority 0.0
2024-12-18T21:58:08,945  INFO EventsManagerImpl:168 resetting Event-Handlers
2024-12-18T21:58:08,945  INFO EventsManagerImpl:175   org.matsim.core.trafficmonitoring.TravelTimeCalculator
2024-12-18T21:58:08,945  INFO EventsManagerImpl:175   org.matsim.analysis.VolumesAnalyzer
2024-12-18T21:58:08,946  INFO EventsManagerImpl:175   org.matsim.core.scoring.ScoringFunctionsForPopulation
2024-12-18T21:58:08,947  INFO EventsManagerImpl:175   org.matsim.analysis.LegHistogram
2024-12-18T21:58:08,947  INFO EventsManagerImpl:175   org.matsim.analysis.CalcLegTimes
2024-12-18T21:58:08,950  INFO EventsManagerImpl:138 adding Event-Handler: org.matsim.core.events.algorithms.EventWriterXML
2024-12-18T21:58:08,951  INFO EventsManagerImpl:144   org.matsim.core.events.algorithms.EventWriter
[...]
2024-12-18T21:58:19,005  INFO NetworkImpl:165  node # 1
2024-12-18T21:58:19,005  INFO NetworkImpl:165  node # 4
2024-12-18T21:58:19,005  INFO NetworkImpl:165  node # 16
2024-12-18T21:58:19,005  INFO NetworkImpl:165  node # 64
2024-12-18T21:58:19,005  INFO NetworkImpl:165  node # 256
2024-12-18T21:58:19,005  INFO NetworkImpl:165  node # 1024
2024-12-18T21:58:19,007  INFO NetworkImpl:161  link # 1
2024-12-18T21:58:19,007  INFO NetworkImpl:161  link # 4
2024-12-18T21:58:19,007  INFO NetworkImpl:161  link # 16
2024-12-18T21:58:19,007  INFO NetworkImpl:161  link # 64
2024-12-18T21:58:19,007  INFO NetworkImpl:161  link # 256
2024-12-18T21:58:19,009  INFO NetworkImpl:161  link # 1024
2024-12-18T21:58:19,016  INFO NetworkImpl:161  link # 4096
2024-12-18T21:58:19,018  INFO RandomizingTimeDistanceTravelDisutilityFactory:86  sigma: 3.0; resulting normalization: 0.011108996538242306
2024-12-18T21:58:19,020  INFO RandomizingTimeDistanceTravelDisutilityFactory:86  sigma: 3.0; resulting normalization: 0.011108996538242306
2024-12-18T21:58:19,095  INFO Counter:70 [PersonPrepareForSim] handled person # 1
2024-12-18T21:58:19,095  INFO Counter:70 [PersonPrepareForSim] handled person # 2
2024-12-18T21:58:19,095  INFO Counter:70 [PersonPrepareForSim] handled person # 4
2024-12-18T21:58:19,095  INFO Counter:70 [PersonPrepareForSim] handled person # 8
2024-12-18T21:58:19,095  INFO Counter:70 [PersonPrepareForSim] handled person # 16
2024-12-18T21:58:19,095  INFO Counter:70 [PersonPrepareForSim] handled person # 32
2024-12-18T21:58:19,095  INFO Counter:70 [PersonPrepareForSim] handled person # 64
2024-12-18T21:58:19,095  INFO Counter:70 [PersonPrepareForSim] handled person # 128
2024-12-18T21:58:19,095  INFO Counter:70 [PersonPrepareForSim] handled person # 256
2024-12-18T21:58:19,095  INFO Counter:70 [PersonPrepareForSim] handled person # 512
2024-12-18T21:58:19,096  INFO Counter:70 [PersonPrepareForSim] handled person # 1024
2024-12-18T21:58:19,096  INFO Counter:70 [PersonPrepareForSim] handled person # 2048
2024-12-18T21:58:19,096  INFO Counter:70 [PersonPrepareForSim] handled person # 4096
2024-12-18T21:58:19,096  INFO Counter:70 [PersonPrepareForSim] handled person # 8192
2024-12-18T21:58:19,097  INFO Counter:70 [PersonPrepareForSim] handled person # 16384
2024-12-18T21:58:19,099  INFO Counter:70 [PersonPrepareForSim] handled person # 32768
2024-12-18T21:58:19,102  INFO Counter:70 [PersonPrepareForSim] handled person # 65536
2024-12-18T21:58:19,108  INFO Counter:70 [PersonPrepareForSim] handled person # 131072
2024-12-18T21:58:19,121  INFO Counter:70 [PersonPrepareForSim] handled person # 262144
2024-12-18T21:58:19,147  INFO Counter:70 [PersonPrepareForSim] handled person # 524288
2024-12-18T21:58:19,180  INFO Counter:75 [PersonPrepareForSim] handled person # 873965
2024-12-18T21:58:19,201  INFO MobsimListenerManager:50 calling addQueueSimulationListener
2024-12-18T21:58:19,201  INFO MobsimListenerManager:54   assigned class org.matsim.core.mobsim.framework.listeners.MobsimListener to interface org.matsim.core.mobsim.framework.listeners.MobsimAfterSimStepListener
2024-12-18T21:58:19,201  INFO MobsimListenerManager:54   assigned class org.matsim.core.mobsim.framework.listeners.MobsimListener to interface org.matsim.vis.snapshotwriters.SnapshotWriterManager
2024-12-18T21:58:19,201  INFO MobsimListenerManager:54   assigned class org.matsim.core.mobsim.framework.listeners.MobsimListener to interface org.matsim.core.mobsim.framework.listeners.MobsimInitializedListener
2024-12-18T21:58:19,201  INFO MobsimListenerManager:54   assigned class org.matsim.core.mobsim.framework.listeners.MobsimListener to interface org.matsim.core.mobsim.framework.listeners.MobsimListener
2024-12-18T21:58:19,202  INFO MobsimListenerManager:54   assigned class org.matsim.core.mobsim.framework.listeners.MobsimListener to interface org.matsim.core.mobsim.framework.listeners.MobsimBeforeCleanupListener
2024-12-18T21:58:19,202  INFO QSimProvider:131 Added MobsimEngine class org.matsim.core.mobsim.qsim.ActivityEngineDefaultImpl
2024-12-18T21:58:19,203  INFO QSimProvider:137 Added Activityhandler class org.matsim.core.mobsim.qsim.ActivityEngineDefaultImpl
2024-12-18T21:58:19,213  INFO QSimProvider:143 Added DepartureHandler class org.matsim.core.mobsim.qsim.qnetsimengine.VehicularDepartureHandler
2024-12-18T21:58:19,213  INFO QSimProvider:131 Added MobsimEngine class org.matsim.core.mobsim.qsim.qnetsimengine.QNetsimEngineWithThreadpool
2024-12-18T21:58:19,213  INFO QSimProvider:131 Added MobsimEngine class org.matsim.core.mobsim.qsim.DefaultTeleportationEngine
2024-12-18T21:58:19,213  INFO QSimProvider:143 Added DepartureHandler class org.matsim.core.mobsim.qsim.DefaultTeleportationEngine
2024-12-18T21:58:19,213  INFO QSimProvider:149 Added AgentSource class org.matsim.core.mobsim.qsim.agents.PopulationAgentSource
2024-12-18T21:58:19,213  INFO MobsimListenerManager:50 calling addQueueSimulationListener
2024-12-18T21:58:19,214  INFO MobsimListenerManager:54   assigned class org.matsim.core.mobsim.framework.listeners.MobsimListener to interface org.matsim.core.mobsim.qsim.messagequeueengine.MessageQueueEngine
2024-12-18T21:58:19,214  INFO MobsimListenerManager:54   assigned class org.matsim.core.mobsim.framework.listeners.MobsimListener to interface org.matsim.core.mobsim.framework.listeners.MobsimBeforeSimStepListener
2024-12-18T21:58:19,214  INFO MobsimListenerManager:54   assigned class org.matsim.core.mobsim.framework.listeners.MobsimListener to interface org.matsim.core.mobsim.framework.listeners.MobsimListener
2024-12-18T21:58:19,214  INFO QSimProvider:155 Added MobsimListener class org.matsim.core.mobsim.qsim.messagequeueengine.MessageQueueEngine
2024-12-18T21:58:19,928  INFO AbstractQNetsimEngine:426 Assigned 3922 nodes and 4661 links to QSimEngineRunner #0
2024-12-18T21:58:23,515  INFO AbstractQNetsimEngine:364 SIMULATION (QNetsimEngine) AT 08:00:00 : #links=0 #nodes=0
2024-12-18T21:58:23,516  INFO QSim:566 SIMULATION (NEW QSim) AT 08:00:00 : #Veh=0 lost=0 simT=0.0s realT=4s; (s/r): 0.0
2024-12-18T21:58:30,114  INFO AbstractController$9:237 ### ITERATION 1 fires after mobsim event
2024-12-18T21:58:30,114  INFO ControlerListenerManagerImpl:269 calling notifyAfterMobsim on org.matsim.analysis.LegTimesControlerListener with priority 0.0
2024-12-18T21:58:30,114  INFO Gbl:196 Thread performance: Thread=class org.matsim.core.events.SimStepParallelEventsManagerImpl$ProcessEventsRunnable0  cpu-time=8.793231361sec
2024-12-18T21:58:30,115  INFO LegTimesControlerListener:51 [1] average trip (probably: leg) duration is: 0 seconds = 00:00:00
2024-12-18T21:58:30,115  INFO ControlerListenerManagerImpl:269 calling notifyAfterMobsim on org.matsim.core.events.MobsimScopeEventHandling with priority 0.0
2024-12-18T21:58:30,115  INFO ControlerListenerManagerImpl:269 calling notifyAfterMobsim on org.matsim.core.scoring.EventsToActivities$1 with priority 0.0
2024-12-18T21:58:30,473  INFO MemoryObserver:42 used RAM: 5554 MB  free: 4981 MB  total: 10536 MB
2024-12-18T21:58:30,590  INFO ControlerListenerManagerImpl:272 [it.1] all ControlerAfterMobsimListeners called.
2024-12-18T21:58:30,590  INFO AbstractController$4:162 ### ITERATION 1 fires scoring event
2024-12-18T21:58:30,590  INFO ControlerListenerManagerImpl:197 calling notifyScoring on org.matsim.core.scoring.PlansScoringImpl with priority 0.0
2024-12-18T21:58:30,905  INFO NewScoreAssignerImpl:58 it: 1 msaStart: null
2024-12-18T21:58:31,128  INFO ControlerListenerManagerImpl:209 [it.1] all ControlerScoringListeners called.
2024-12-18T21:58:31,128  INFO AbstractController$5:170 ### ITERATION 1 fires iteration end event
2024-12-18T21:58:31,128  INFO ControlerListenerManagerImpl:172 calling notifyIterationEnds on org.matsim.core.controler.corelisteners.EventsHandlingImpl with priority 0.0
2024-12-18T21:58:31,129  INFO EventsManagerImpl:159 removing Event-Handler: org.matsim.core.events.algorithms.EventWriterXML
2024-12-18T21:58:31,129  INFO EventsManagerImpl:159 removing Event-Handler: org.matsim.core.events.algorithms.EventWriterXML
2024-12-18T21:58:31,129  INFO ControlerListenerManagerImpl:172 calling notifyIterationEnds on org.matsim.core.scoring.PlansScoringImpl with priority 0.0
2024-12-18T21:58:31,320  INFO ControlerListenerManagerImpl:180 calling notifyIterationEnds on org.matsim.counts.CountsControlerListener with priority 0.0
2024-12-18T21:58:31,320  INFO ControlerListenerManagerImpl:180 calling notifyIterationEnds on org.matsim.analysis.ModeStatsControlerListener with priority 0.0
2024-12-18T21:58:31,456  INFO ModeStatsControlerListener:133 Mode shares over all 0.0 trips found. MainModeIdentifier: class org.matsim.core.router.DefaultAnalysisMainModeIdentifier
2024-12-18T21:58:31,527  INFO ControlerListenerManagerImpl:180 calling notifyIterationEnds on org.matsim.analysis.ScoreStatsControlerListener with priority 0.0
2024-12-18T21:58:31,647  INFO ScoreStatsControlerListener:154 -- avg. score of the executed plan of each agent: 101.51740267879546
2024-12-18T21:58:31,647  INFO ScoreStatsControlerListener:155 -- avg. score of the worst plan of each agent: 101.51740267879546
2024-12-18T21:58:31,647  INFO ScoreStatsControlerListener:156 -- avg. of the avg. plan score per agent: 101.51740267879546
2024-12-18T21:58:31,647  INFO ScoreStatsControlerListener:157 -- avg. score of the best plan of each agent: 101.51740267879546
2024-12-18T21:58:31,687  INFO ControlerListenerManagerImpl:180 calling notifyIterationEnds on org.matsim.analysis.IterationTravelStatsControlerListener with priority 0.0
2024-12-18T21:58:31,811  INFO TravelDistanceStats:115 -- average leg distance per plan (executed plans only): 0.0 meters
2024-12-18T21:58:31,811  INFO TravelDistanceStats:116 average leg distance per Person (executed plans only): 0.0 meters (statistic on all 0 legs which have a finite distance)
2024-12-18T21:58:31,811  INFO TravelDistanceStats:117 -- average trip distance per plan (executed plans only): 0.0 meters
2024-12-18T21:58:31,812  INFO TravelDistanceStats:118 average trip distance per Person (executed plans only): 0.0 meters (statistic on all 0 trips which have a finite distance)
2024-12-18T21:58:31,812  INFO TravelDistanceStats:119 (TravelDistanceStats takes an average over all legs where the simulation reports travelled (network) distances
2024-12-18T21:58:31,812  INFO TravelDistanceStats:120 (and teleported legs whose route contains a distance.)
2024-12-18T21:58:32,106  INFO ActivityWriter:39 Writing all Activities to activitiescsv
2024-12-18T21:58:41,230  INFO ActivityWriter:59 ...done
2024-12-18T21:58:41,230  INFO ControlerListenerManagerImpl:180 calling notifyIterationEnds on org.matsim.analysis.LegHistogramListener with priority 0.0
2024-12-18T21:58:41,232  INFO LegHistogramListener:73 number of legs:	0	100%
2024-12-18T21:58:41,282  INFO ControlerListenerManagerImpl:180 calling notifyIterationEnds on org.matsim.analysis.LinkStatsControlerListener with priority 0.0
2024-12-18T21:58:41,282  INFO ControlerListenerManagerImpl:184 [it.1] all ControlerIterationEndsListeners called.
2024-12-18T21:58:41,365  INFO AbstractController:184 ### ITERATION 1 ENDS
2024-12-18T21:58:41,365  INFO AbstractController:185 ###################################################
2024-12-18T21:58:41,365  INFO MatsimRuntimeModifications:80 S H U T D O W N   ---   start shutdown.
2024-12-18T21:58:41,366  INFO ControlerListenerManagerImpl:128 calling notifyShutdown on org.matsim.core.controler.corelisteners.EventsHandlingImpl with priority 0.0
2024-12-18T21:58:41,366  INFO ControlerListenerManagerImpl:128 calling notifyShutdown on org.matsim.core.controler.corelisteners.DumpDataAtEndImpl with priority 0.0
2024-12-18T21:58:41,718  INFO Counter:70 [PopulationWriter] dumped person # 1
2024-12-18T21:58:41,718  INFO Counter:70 [PopulationWriter] dumped person # 2
2024-12-18T21:58:41,719  INFO Counter:70 [PopulationWriter] dumped person # 4
2024-12-18T21:58:41,719  INFO Counter:70 [PopulationWriter] dumped person # 8
2024-12-18T21:58:41,719  INFO Counter:70 [PopulationWriter] dumped person # 16
2024-12-18T21:58:41,719  INFO Counter:70 [PopulationWriter] dumped person # 32
2024-12-18T21:58:41,719  INFO Counter:70 [PopulationWriter] dumped person # 64
2024-12-18T21:58:41,719  INFO Counter:70 [ParallelPopulationWriterV6] dumped person # 1
2024-12-18T21:58:41,719  INFO Counter:70 [PopulationWriter] dumped person # 128
2024-12-18T21:58:41,719  INFO Counter:70 [ParallelPopulationWriterV6] dumped person # 2
2024-12-18T21:58:41,719  INFO Counter:70 [ParallelPopulationWriterV6] dumped person # 4
2024-12-18T21:58:41,719  INFO Counter:70 [PopulationWriter] dumped person # 256
2024-12-18T21:58:41,719  INFO Counter:70 [ParallelPopulationWriterV6] dumped person # 8
2024-12-18T21:58:41,719  INFO Counter:70 [ParallelPopulationWriterV6] dumped person # 16
2024-12-18T21:58:41,719  INFO Counter:70 [PopulationWriter] dumped person # 512
2024-12-18T21:58:41,720  INFO Counter:70 [PopulationWriter] dumped person # 1024
2024-12-18T21:58:41,720  INFO Counter:70 [ParallelPopulationWriterV6] dumped person # 32
2024-12-18T21:58:41,720  INFO Counter:70 [ParallelPopulationWriterV6] dumped person # 64
2024-12-18T21:58:41,721  INFO Counter:70 [ParallelPopulationWriterV6] dumped person # 128
2024-12-18T21:58:41,723  INFO Counter:70 [ParallelPopulationWriterV6] dumped person # 256
2024-12-18T21:58:41,726  INFO Counter:70 [ParallelPopulationWriterV6] dumped person # 512
2024-12-18T21:58:41,731  INFO Counter:70 [ParallelPopulationWriterV6] dumped person # 1024
2024-12-18T21:58:41,732  INFO Counter:70 [PopulationWriter] dumped person # 2048
2024-12-18T21:58:41,743  INFO Counter:70 [ParallelPopulationWriterV6] dumped person # 2048
2024-12-18T21:58:41,754  INFO Counter:70 [PopulationWriter] dumped person # 4096
2024-12-18T21:58:41,765  INFO Counter:70 [ParallelPopulationWriterV6] dumped person # 4096
2024-12-18T21:58:41,799  INFO Counter:70 [PopulationWriter] dumped person # 8192
2024-12-18T21:58:41,811  INFO Counter:70 [ParallelPopulationWriterV6] dumped person # 8192
2024-12-18T21:58:41,900  INFO Counter:70 [PopulationWriter] dumped person # 16384
2024-12-18T21:58:41,912  INFO Counter:70 [ParallelPopulationWriterV6] dumped person # 16384
2024-12-18T21:58:42,086  INFO Counter:70 [PopulationWriter] dumped person # 32768
2024-12-18T21:58:42,096  INFO Counter:70 [ParallelPopulationWriterV6] dumped person # 32768
2024-12-18T21:58:42,449  INFO Counter:70 [PopulationWriter] dumped person # 65536
2024-12-18T21:58:42,459  INFO Counter:70 [ParallelPopulationWriterV6] dumped person # 65536
2024-12-18T21:58:43,129  INFO Counter:70 [PopulationWriter] dumped person # 131072
2024-12-18T21:58:43,139  INFO Counter:70 [ParallelPopulationWriterV6] dumped person # 131072
2024-12-18T21:58:44,521  INFO Counter:70 [PopulationWriter] dumped person # 262144
2024-12-18T21:58:44,531  INFO Counter:70 [ParallelPopulationWriterV6] dumped person # 262144
2024-12-18T21:58:47,364  INFO Counter:70 [PopulationWriter] dumped person # 524288
2024-12-18T21:58:47,376  INFO Counter:70 [ParallelPopulationWriterV6] dumped person # 524288
2024-12-18T21:58:51,442  INFO Counter:75 [ParallelPopulationWriterV6] dumped person # 873965
2024-12-18T21:58:51,442  INFO PopulationWriter:150 Population written to: scenarios/equil/output/run_20241218_215721/output_plans.xml.gz
2024-12-18T21:58:51,442  INFO Counter:75 [PopulationWriter] dumped person # 873965
2024-12-18T21:58:51,443  INFO NetworkWriter:70 Writing network to file: scenarios/equil/output/run_20241218_215721/output_network.xml.gz...
2024-12-18T21:58:51,526  INFO NetworkWriter:73 done.
2024-12-18T21:58:51,532  INFO Config:550 setting context to [file:/home/opc/matsim-example-project/]
2024-12-18T21:58:51,535  INFO Config:550 setting context to [file:/home/opc/matsim-example-project/]
2024-12-18T21:58:51,540  INFO Config:550 setting context to [file:/home/opc/matsim-example-project/]
2024-12-18T21:58:51,542  INFO Config:550 setting context to [file:/home/opc/matsim-example-project/]
2024-12-18T21:58:51,543  INFO Config:550 setting context to [file:/home/opc/matsim-example-project/]
2024-12-18T21:58:51,545  INFO Config:550 setting context to [file:/home/opc/matsim-example-project/]
2024-12-18T21:58:51,546  INFO Config:550 setting context to [file:/home/opc/matsim-example-project/]
2024-12-18T21:58:51,547  INFO Config:550 setting context to [file:/home/opc/matsim-example-project/]
2024-12-18T21:58:51,548  INFO Config:550 setting context to [file:/home/opc/matsim-example-project/]
2024-12-18T21:58:51,549  INFO Config:550 setting context to [file:/home/opc/matsim-example-project/]
2024-12-18T21:58:51,550  INFO Config:550 setting context to [file:/home/opc/matsim-example-project/]
2024-12-18T21:58:51,552  INFO Config:550 setting context to [file:/home/opc/matsim-example-project/]
2024-12-18T21:58:51,552  INFO Config:550 setting context to [file:/home/opc/matsim-example-project/]
2024-12-18T21:58:51,554  INFO Config:550 setting context to [file:/home/opc/matsim-example-project/]
2024-12-18T21:58:51,559  INFO Config:550 setting context to [file:/home/opc/matsim-example-project/]
2024-12-18T21:58:51,561  INFO Config:550 setting context to [file:/home/opc/matsim-example-project/]
2024-12-18T21:58:51,562  INFO Config:550 setting context to [file:/home/opc/matsim-example-project/]
2024-12-18T21:58:51,564  INFO Config:550 setting context to [file:/home/opc/matsim-example-project/]
2024-12-18T21:58:51,565  INFO Config:550 setting context to [file:/home/opc/matsim-example-project/]
2024-12-18T21:58:51,569  INFO Config:550 setting context to [file:/home/opc/matsim-example-project/]
2024-12-18T21:58:51,570  INFO Config:550 setting context to [file:/home/opc/matsim-example-project/]
2024-12-18T21:58:51,571  INFO Config:550 setting context to [file:/home/opc/matsim-example-project/]
2024-12-18T21:58:51,572  INFO Config:550 setting context to [file:/home/opc/matsim-example-project/]
2024-12-18T21:58:51,573  INFO Config:550 setting context to [file:/home/opc/matsim-example-project/]
2024-12-18T21:58:51,574  INFO Config:550 setting context to [file:/home/opc/matsim-example-project/]
2024-12-18T21:58:51,575  INFO Config:550 setting context to [file:/home/opc/matsim-example-project/]
2024-12-18T21:58:51,578  INFO MatsimVehicleWriter:49 about to write vehicles to: scenarios/equil/output/run_20241218_215721/output_vehicles.xml.gz
2024-12-18T21:58:51,578  INFO VehicleWriterV2:64 about to write vehicles to: scenarios/equil/output/run_20241218_215721/output_vehicles.xml.gz
2024-12-18T21:58:52,461  INFO VehicleUtils:395 adding scenario element for allvehicles container
2024-12-18T21:58:52,462  INFO HouseholdsWriterV10:66 about to write  households to: scenarios/equil/output/run_20241218_215721/output_households.xml.gz
2024-12-18T21:58:52,462  INFO Counter:75 [HouseholdsWriter] wrote household # 0
2024-12-18T21:58:52,466  INFO CountsWriterV2:45 Write Counts to scenarios/equil/output/run_20241218_215721/output_counts.xml.gz
2024-12-18T21:58:52,512  INFO ControlerListenerManagerImpl:135 calling notifyShutdown on org.matsim.analysis.ScoreStatsControlerListener with priority 0.0
2024-12-18T21:58:52,512  INFO ControlerListenerManagerImpl:135 calling notifyShutdown on org.matsim.analysis.IterationTravelStatsControlerListener with priority 0.0
2024-12-18T21:58:52,512  INFO PersonWriter:36 Writing all Persons to personscsv
2024-12-18T21:58:55,838  INFO PersonWriter:54 ...done
2024-12-18T21:58:55,838  INFO ControlerListenerManagerImpl:135 calling notifyShutdown on org.matsim.analysis.LinkStatsControlerListener with priority 0.0
2024-12-18T21:58:55,922  INFO ControlerListenerManagerImpl:138 all ControlerShutdownListeners called.
2024-12-18T21:58:55,922  INFO MatsimRuntimeModifications:103 S H U T D O W N   ---   shutdown completed.
2024-12-18T21:58:55,922  INFO OutputDirectoryLogging:172 closing the logfile, i.e. messages sent to the logger after this message are not written to the logfile.
