2024-12-19T09:48:30,078  INFO Gbl:64 JVM: 17.0.13; Red Hat, Inc.; mixed mode, sharing; 64-bit
2024-12-19T09:48:30,078  INFO Gbl:68 OS: Linux; 5.15.0-301.163.5.2.el8uek.x86_64; amd64
2024-12-19T09:48:30,078  INFO Gbl:71 CPU cores: 8
2024-12-19T09:48:30,081  INFO Gbl:72 max. Memory: 16008.0MB (16785604608B)
2024-12-19T09:48:30,081  INFO Gbl:114 MATSim-Build: ree04702ba7fc026b6bdf5a6ea52a749cf0c790e1 (2024-04-13 15:48:32)
2024-12-19T09:48:30,082  INFO Gbl:76 Command: org.matsim.project.RunMatsim
2024-12-19T09:48:30,085  INFO ControlerListenerManagerImpl:112 calling notifyStartup on org.matsim.core.controler.ControlerDefaultsModule$1 with priority 0.0
2024-12-19T09:48:30,086  INFO MemoryObserver:42 used RAM: 190 MB  free: 105 MB  total: 296 MB
2024-12-19T09:48:30,133  INFO ControlerListenerManagerImpl:112 calling notifyStartup on org.matsim.guice.DependencyGraphControlerListener with priority 0.0
2024-12-19T09:48:30,215  INFO ControlerListenerManagerImpl:112 calling notifyStartup on org.matsim.counts.CountsControlerListener with priority 0.0
2024-12-19T09:48:30,215  INFO ControlerListenerManagerImpl:112 calling notifyStartup on org.matsim.analysis.ModeStatsControlerListener with priority 0.0
2024-12-19T09:48:30,215  INFO ControlerListenerManagerImpl:112 calling notifyStartup on org.matsim.analysis.ScoreStatsControlerListener with priority 0.0
2024-12-19T09:48:30,216  INFO ControlerListenerManagerImpl:115 all ControlerStartupListeners called.
2024-12-19T09:48:30,216  INFO ControlerUtils:79 config dump before iterations start
2024-12-19T09:48:30,229  INFO ControlerUtils:83 

<?xml version="1.0" encoding="UTF-8"?>
<!DOCTYPE config SYSTEM "http://www.matsim.org/files/dtd/config_v2.dtd">
<config>
	<module name="changeMode" >
		<!-- Defines whether car availability is considered be considered or not. An agent has no car only if it has no license, or never access to a car. Default: true -->
		<param name="ignoreCarAvailability" value="true" />
		<!-- Defines the mode switch behavior. Possible values [fromAllModesToSpecifiedModes, fromSpecifiedModesToSpecifiedModes] Default: fromSpecifiedModesToSpecifiedModes. -->
		<param name="modeSwitchBehavior" value="fromSpecifiedModesToSpecifiedModes" />
		<!-- Defines all the modes available, including chain-based modes, seperated by commas -->
		<param name="modes" value="car,pt" />
	</module>
	<module name="controller" >
		<!-- Defines what should be done with the ITERS directory when a simulation finished successfully -->
		<param name="cleanItersAtEnd" value="keep" />
		<!-- Compression algorithm to use when writing out data to files. Possible values: [none, gzip, lz4, zst] -->
		<param name="compressionType" value="gzip" />
		<!-- Sets the interval in which graphs are generated. Default is 1. If set to 0, no graphs are generated. The generation of graphs usually takes a small amount of time that does not have any weight in big simulations, but add a significant overhead in smaller runs or in test cases where the graphical output is not even requested. -->
		<param name="createGraphsInterval" value="1" />
		<!-- Defines when the scoring functions for the population are created. Default=IterationStarts. Possible values: [IterationStarts, BeforeMobsim] -->
		<param name="createScoringFunctionType" value="IterationStarts" />
		<!-- true if at the end of a run, plans, network, config etc should be dumped to a file -->
		<param name="dumpDataAtEnd" value="true" />
		<!-- Default=false. If enabled, the router takes travel times needed for turning moves into account. Can only be used with Dijkstra routing. Cannot be used when TravelTimeCalculator.separateModes is enabled. -->
		<param name="enableLinkToLinkRouting" value="false" />
		<!-- Default=xml; Specifies the file format for writing events. Currently supported: [xml, pb, json]
		Multiple values can be specified separated by commas (','). -->
		<param name="eventsFileFormat" value="xml" />
		<!-- Default=0. First Iteration of a simulation. -->
		<param name="firstIteration" value="0" />
		<!-- Default=1000. Last Iteration of a simulation. -->
		<param name="lastIteration" value="1" />
		<!-- Defines the interval for printing memory usage to the log in [seconds]. Must be positive. Defaults to 60. -->
		<param name="memoryObserverInterval" value="60" />
		<!-- Defines which mobility simulation will be used. Currently supported: [qsim, JDEQSim, hermes]
		Depending on the chosen mobsim, you'll have to add additional config modules to configure the corresponding mobsim.
		For 'qsim', add a module 'qsim' to the config. -->
		<param name="mobsim" value="qsim" />
		<param name="outputDirectory" value="scenarios/equil/output/run_20241219_094827" />
		<!-- Possible values: failIfDirectoryExists,overwriteExistingFiles,deleteDirectoryIfExists -->
		<param name="overwriteFiles" value="deleteDirectoryIfExists" />
		<!-- The type of routing (least cost path) algorithm used, may have the values: [Dijkstra, AStarLandmarks, SpeedyALT] -->
		<param name="routingAlgorithmType" value="Dijkstra" />
		<!-- An identifier for the current run which is used as prefix for output files and mentioned in output xml files etc. -->
		<param name="runId" value="null" />
		<!-- Comma-separated list of visualizer output file formats. `transims' and `otfvis'. -->
		<param name="snapshotFormat" value="" />
		<!-- iterationNumber % writeEventsInterval == 0 defines in which iterations events are written to a file. `0' disables events writing completely. -->
		<param name="writeEventsInterval" value="50" />
		<!-- iterationNumber % writePlansInterval == 0 defines (hopefully) in which iterations plans are written to a file. `0' disables plans writing completely.  Some plans in early iterations are always written -->
		<param name="writePlansInterval" value="50" />
		<!-- iterationNumber % writeSnapshotsInterval == 0 defines in which iterations snapshots are written to a file. `0' disables snapshots writing completely -->
		<param name="writeSnapshotsInterval" value="1" />
		<!-- iterationNumber % writeEventsInterval == 0 defines in which iterations trips CSV are written to a file. `0' disables trips writing completely. -->
		<param name="writeTripsInterval" value="50" />
	</module>
	<module name="counts" >
		<!-- Transport modes that will be respected for the counts comparison. 'car' is default, which includes also bussed from the pt simulation module. Use this parameter in combination with 'filterModes' = true! -->
		<param name="analyzedModes" value="car" />
		<!-- Specifies over how many iterations the link volumes should be averaged that are used for the counts comparison. Use 1 or 0 to only use the link volumes of a single iteration. This values cannot be larger than the value specified for writeCountsInterval -->
		<param name="averageCountsOverIterations" value="5" />
		<!-- factor by which to re-scale the simulated values.  necessary when simulation runs with something different from 100%.  needs to be adapted manually -->
		<param name="countsScaleFactor" value="1.0" />
		<!-- distance to distanceFilterCenterNode to include counting stations. The unit of distance is the Euclidean distance implied by the coordinate system -->
		<param name="distanceFilter" value="null" />
		<!-- node id for center node of distance filter -->
		<param name="distanceFilterCenterNode" value="null" />
		<!-- If true, link counts from legs performed on modes not included in the 'analyzedModes' parameter are ignored. -->
		<param name="filterModes" value="false" />
		<!-- The Coordinates Reference System in which the coordinates are expressed in the input file. At import, the coordinates will be converted to the coordinate system defined in "global", and willbe converted back at export. If not specified, no conversion happens. -->
		<param name="inputCRS" value="null" />
		<!-- input file name to counts package -->
		<param name="inputCountsFile" value="null" />
		<!-- possible values: `html', `txt', `all' -->
		<param name="outputformat" value="txt" />
		<!-- Specifies how often the counts comparison should be calculated and written. -->
		<param name="writeCountsInterval" value="10" />
	</module>
	<module name="eventsManager" >
		<!-- Estimated number of events during mobsim run. An optional optimization hint for the framework. -->
		<param name="estimatedNumberOfEvents" value="null" />
		<!-- Size of the events Queue. Increase for very large scenarios -->
		<param name="eventsQueueSize" value="131072" />
		<!-- Number of threads for parallel events handler. _null_ means the framework decides by itself. 0 is currently not possible. -->
		<param name="numberOfThreads" value="null" />
		<!-- If enabled, each event handler is assigned to its own thread. Note that enabling this feature disabled the numberOfThreads option! This feature is still experimental! -->
		<param name="oneThreadPerHandler" value="false" />
		<!-- If enabled, it is ensured that all events that are created during a time step of the mobility simulation are processed before the next time step is simulated. E.g. neccessary when within-day replanning is used. -->
		<param name="synchronizeOnSimSteps" value="true" />
	</module>
	<module name="facilities" >
		<!-- This defines how facilities should be created. Possible values: none fromFile setInScenario onePerActivityLinkInPlansFile onePerActivityLinkInPlansFileExceptWhenCoordinatesAreGiven onePerActivityLocationInPlansFile  -->
		<param name="facilitiesSource" value="none" />
		<!-- A prefix to be used for auto-generated IDs. -->
		<param name="idPrefix" value="f_auto_" />
		<!-- The Coordinates Reference System in which the coordinates are expressed in the input file. At import, the coordinates will be converted to the coordinate system defined in "global", and willbe converted back at export. If not specified, no conversion happens. -->
		<param name="inputCRS" value="null" />
		<param name="inputFacilitiesFile" value="null" />
		<param name="inputFacilityAttributesFile" value="null" />
		<param name="insistingOnUsingDeprecatedFacilitiesAttributeFile" value="false" />
	</module>
	<module name="global" >
		<param name="coordinateSystem" value="EPSG:32610" />
		<param name="defaultDelimiter" value=";" />
		<param name="insistingOnDeprecatedConfigVersion" value="true" />
		<!-- "global" number of threads.  This number is used, e.g., for replanning, but NOT in QSim.  This can typically be set to as many cores as you have available, or possibly even slightly more. -->
		<param name="numberOfThreads" value="2" />
		<param name="randomSeed" value="4711" />
	</module>
	<module name="hermes" >
		<!-- Simulation End Time -->
		<param name="endTime" value="30:00:00" />
		<param name="flowCapacityFactor" value="1.0" />
		<param name="mainMode" value="car" />
		<param name="storageCapacityFactor" value="1.0" />
		<!-- time in seconds.  Time after which the frontmost vehicle on a link is called `stuck' if it does not move. Set to Integer.MAX_VALUE to disable this behavior -->
		<param name="stuckTime" value="10" />
		<!-- treats PT as deterministic. PT vehicles will run with a steady speed. Should be used with separate network layers for PT and other network modes. -->
		<param name="useDeterministicPt" value="false" />
	</module>
	<module name="households" >
		<param name="inputFile" value="null" />
		<param name="inputHouseholdAttributesFile" value="null" />
		<param name="insistingOnUsingDeprecatedHouseholdsAttributeFile" value="false" />
	</module>
	<module name="jdeqsim" >
		<param name="carSize" value="7.5" />
		<param name="endTime" value="undefined" />
		<param name="flowCapacityFactor" value="1.0" />
		<param name="gapTravelSpeed" value="15.0" />
		<param name="minimumInFlowCapacity" value="1800.0" />
		<param name="squeezeTime" value="1800.0" />
		<param name="storageCapacityFactor" value="1.0" />
	</module>
	<module name="linkStats" >
		<!-- Specifies over how many iterations the link volumes should be averaged that are used for the link statistics. Use 1 or 0 to only use the link volumes of a single iteration. This values cannot be larger than the value specified for writeLinkStatsInterval -->
		<param name="averageLinkStatsOverIterations" value="5" />
		<!-- Specifies how often the link stats should be calculated and written. Use 0 to disable the generation of link stats. -->
		<param name="writeLinkStatsInterval" value="50" />
	</module>
	<module name="network" >
		<!-- The Coordinates Reference System in which the coordinates are expressed in the input file. At import, the coordinates will be converted to the coordinate system defined in "global", and willbe converted back at export. If not specified, no conversion happens. -->
		<param name="inputCRS" value="null" />
		<param name="inputChangeEventsFile" value="null" />
		<param name="inputNetworkFile" value="output/sf_network.xml.gz" />
		<param name="laneDefinitionsFile" value="null" />
		<param name="timeVariantNetwork" value="false" />
	</module>
	<module name="planInheritance" >
		<!-- Specifies whether or not PlanInheritance Information should be tracked. -->
		<param name="enabled" value="false" />
	</module>
	<module name="plans" >
		<!-- String: minOfDurationAndEndTime tryEndTimeThenDuration endTimeOnly. Anything besides minOfDurationAndEndTime will internally use a different (simpler) version of the TimeAllocationMutator. -->
		<param name="activityDurationInterpretation" value="tryEndTimeThenDuration" />
		<!-- Possible values: reject,useMainModeIdentifier -->
		<param name="handlingOfPlansWithoutRoutingMode" value="useMainModeIdentifier" />
		<!-- The Coordinates Reference System in which the coordinates are expressed in the input file. At import, the coordinates will be converted to the coordinate system defined in "global", and willbe converted back at export. If not specified, no conversion happens. -->
		<param name="inputCRS" value="null" />
		<param name="inputPersonAttributesFile" value="null" />
		<param name="inputPlansFile" value="output/synthetic_population.xml" />
		<param name="insistingOnUsingDeprecatedPersonAttributeFile" value="false" />
		<!-- Defines how routes are stored in memory. Currently supported: LinkNetworkRoute, MediumCompressedNetworkRoute, HeavyCompressedNetworkRoute. -->
		<param name="networkRouteType" value="LinkNetworkRoute" />
		<!-- (not tested) will remove plan attributes that are presumably not used, such as activityStartTime. default=false. Use with Caution! -->
		<param name="removingUnnecessaryPlanAttributes" value="false" />
		<!-- Defines how departure times are interpreted in rerouting applications. If set to 'ignoreDelays', the departure time of a trip when routing along a plan will always be the nominal (plan-based) activity end time. If set to 'shiftActivityEndTimes', routing along a plan will accumulate travel times and shift activity end times if necessary -->
		<param name="tripDurationHandling" value="ignoreDelays" />
	</module>
	<module name="qsim" >
		<param name="endTime" value="30:00:00" />
		<!-- If set to withLinkAttributes snapshots will only be generated for links which include generateSnapshotForLink as attribute key. Default is no filtering. -->
		<param name="filterSnapshots" value="no" />
		<param name="flowCapacityFactor" value="1.0" />
		<!-- decides if waiting vehicles enter the network after or before the already driving vehicles were moved. Default: false -->
		<param name="insertingWaitingVehiclesBeforeDrivingVehicles" value="true" />
		<!-- If link dynamics is set as SeepageQ, set to false if all seep modes should perform seepage. Default is true (better option). -->
		<param name="isRestrictingSeepage" value="true" />
		<!-- If link dynamics is set as SeepageQ, set to true if seep mode do not consumes any space on the link. Default is false. -->
		<param name="isSeepModeStorageFree" value="false" />
		<!-- default: FIFO; options: FIFO PassingQ SeepageQ -->
		<param name="linkDynamics" value="FIFO" />
		<!-- The (initial) width of the links of the network. Use positive floating point values. This is used only for visualisation. -->
		<param name="linkWidth" value="30.0" />
		<!-- [comma-separated list] Defines which modes are congested modes. Technically, these are the modes that the departure handler of the netsimengine handles.  Effective cell size, effective lane width, flow capacity factor, and storage capacity factor need to be set with diligence.  Need to be vehicular modes to make sense. -->
		<param name="mainMode" value="car" />
		<!-- Shortens a link in the visualization, i.e. its start and end point are moved into towards the center. Does not affect traffic flow.  -->
		<param name="nodeOffset" value="0.0" />
		<!-- Number of threads used for the QSim.  Note that this setting is independent from the "global" threads setting.  In contrast to earlier versions, the non-parallel special version is no longer there. -->
		<param name="numberOfThreads" value="1" />
		<!-- Boolean. `true': stuck vehicles are removed, aborting the plan; `false': stuck vehicles are forced into the next link. `false' is probably the better choice. -->
		<param name="removeStuckVehicles" value="false" />
		<!-- If link dynamics is set as SeepageQ, set a seep mode. Default is bike. -->
		<param name="seepMode" value="bike" />
		<!-- Possible values: minOfEndtimeAndMobsimFinished,onlyUseEndtime -->
		<param name="simEndtimeInterpretation" value="null" />
		<!-- Options: maxOfStarttimeAndEarliestActivityEnd onlyUseStarttime  -->
		<param name="simStarttimeInterpretation" value="maxOfStarttimeAndEarliestActivityEnd" />
		<!-- snapshotStyle. One of: equiDist queue withHoles withHolesAndShowHoles kinematicWaves  -->
		<param name="snapshotStyle" value="queue" />
		<param name="snapshotperiod" value="00:30:00" />
		<param name="startTime" value="00:00:00" />
		<param name="storageCapacityFactor" value="1.0" />
		<!-- time in seconds.  Time after which the frontmost vehicle on a link is called `stuck' if it does not move. -->
		<param name="stuckTime" value="10.0" />
		<param name="timeStepSize" value="00:00:01" />
		<!-- options: queue withHoles kinematicWaves  -->
		<param name="trafficDynamics" value="queue" />
		<!-- Set this parameter to true if lanes should be used, false if not. -->
		<param name="useLanes" value="true" />
		<!-- If a route does not reference a vehicle, agents will use the vehicle with the same id as their own. -->
		<param name="usePersonIdForMissingVehicleId" value="false" />
		<!-- If false, the qsim accumulates fractional flows up to one flow unit in every time step.  If true, flows are updated only if an agent wants to enter the link or an agent is added to buffer. Default is true. -->
		<param name="usingFastCapacityUpdate" value="true" />
		<!-- Defines what happens if an agent wants to depart, but the specified vehicle is not available. One of: teleport wait exception  -->
		<param name="vehicleBehavior" value="teleport" />
		<!-- If vehicles should all be the same default vehicle, or come from the vehicles file, or something else.  Possible values:  defaultVehicle modeVehicleTypesFromVehiclesData fromVehiclesData -->
		<param name="vehiclesSource" value="defaultVehicle" />
	</module>
	<module name="replanning" >
		<!-- the external executable will be called with a config file as argument.  This is the pathname to a possible skeleton config, to which additional information will be added.  Can be null. -->
		<param name="ExternalExeConfigTemplate" value="null" />
		<!-- time out value (in seconds) after which matsim will consider the external strategy as failed -->
		<param name="ExternalExeTimeOut" value="3600" />
		<!-- root directory for temporary files generated by the external executable. Provided as a service; I don't think this is used by MATSim. -->
		<param name="ExternalExeTmpFileRootDir" value="null" />
		<!-- fraction of iterations where innovative strategies are switched off.  Something like 0.8 should be good.  E.g. if you run from iteration 400 to iteration 500, innovation is switched off at iteration 480 -->
		<param name="fractionOfIterationsToDisableInnovation" value="Infinity" />
		<!-- maximum number of plans per agent.  ``0'' means ``infinity''.  Currently (2010), ``5'' is a good number -->
		<param name="maxAgentPlanMemorySize" value="5" />
		<!-- strategyName of PlanSelector for plans removal.  Possible defaults: WorstPlanSelector SelectRandom SelectExpBetaForRemoval ChangeExpBetaForRemoval PathSizeLogitSelectorForRemoval . The current default, WorstPlanSelector is not a good choice from a discrete choice theoretical perspective. Alternatives, however, have not been systematically tested. kai, feb'12 -->
		<param name="planSelectorForRemoval" value="WorstPlanForRemovalSelectorWithConflicts" />
		<parameterset type="strategysettings" >
			<!-- iteration after which strategy will be disabled.  most useful for ``innovative'' strategies (new routes, new times, ...). Normally, better use fractionOfIterationsToDisableInnovation -->
			<param name="disableAfterIteration" value="-1" />
			<!-- path to external executable (if applicable) -->
			<param name="executionPath" value="null" />
			<!-- strategyName of strategy.  Possible default names: SelectRandom BestScore KeepLastSelected ChangeExpBeta SelectExpBeta SelectPathSizeLogit      (selectors), ReRouteTimeAllocationMutatorTimeAllocationMutator_ReRouteChangeSingleTripModeChangeTripModeSubtourModeChoice (innovative strategies). -->
			<param name="strategyName" value="BestScore" />
			<!-- subpopulation to which the strategy applies. "null" refers to the default population, that is, the set of persons for which no explicit subpopulation is defined (ie no subpopulation attribute) -->
			<param name="subpopulation" value="null" />
			<!-- weight of a strategy: for each agent, a strategy will be selected with a probability proportional to its weight -->
			<param name="weight" value="0.9" />
		</parameterset>
		<parameterset type="strategysettings" >
			<param name="disableAfterIteration" value="-1" />
			<param name="executionPath" value="null" />
			<param name="strategyName" value="ReRoute" />
			<param name="subpopulation" value="null" />
			<param name="weight" value="0.1" />
		</parameterset>
		<parameterset type="strategysettings" >
			<param name="disableAfterIteration" value="-1" />
			<param name="executionPath" value="null" />
			<param name="strategyName" value="TimeAllocationMutator" />
			<param name="subpopulation" value="null" />
			<param name="weight" value="0.1" />
		</parameterset>
	</module>
	<module name="replanningAnnealer" >
		<!-- Activate the scaling of replanning modules using an annealing approach rather than fixed rates. -->
		<param name="activateAnnealingModule" value="false" />
	</module>
	<module name="routing" >
		<!-- Defines how access and egress to main mode is simulated. Either of [none, accessEgressModeToLink, walkConstantTimeToLink, accessEgressModeToLinkPlusTimeConstant], Current default=none which means no access or egress trips are simulated. -->
		<param name="accessEgressType" value="none" />
		<!-- Some typical teleportation routing params are set by default, such as for walk and bike.  Setting this switch to "true" will clear them.  Note that this will also clear settings for helper modes such as for non_network_walk -->
		<param name="clearDefaultTeleportedModeParams" value="false" />
		<!-- All the modes for which the router is supposed to generate network routes (like car) -->
		<param name="networkModes" value="car" />
		<!-- strength of the randomness for the utility of money in routing under toll.  Leads to Pareto-optimal route with randomly drawn money-vs-other-attributes tradeoff. Technically the width parameter of a log-normal distribution. 3.0 seems to be a good value.  -->
		<param name="routingRandomness" value="3.0" />
		<parameterset type="teleportedModeParameters" >
			<param name="beelineDistanceFactor" value="1.3" />
			<param name="mode" value="bike" />
			<!-- Free-speed factor for a teleported mode. Travel time = teleportedModeFreespeedFactor * <freespeed car travel time>. Insert a line like this for every such mode. Please do not set teleportedModeFreespeedFactor as well as teleportedModeSpeed for the same mode, but if you do, +teleportedModeFreespeedFactor wins over teleportedModeSpeed. -->
			<param name="teleportedModeFreespeedFactor" value="null" />
			<!-- Speed for a teleported mode. Travel time = (<beeline distance> * beelineDistanceFactor) / teleportedModeSpeed. Insert a line like this for every such mode. -->
			<param name="teleportedModeSpeed" value="4.166666666666667" />
		</parameterset>
		<parameterset type="teleportedModeParameters" >
			<param name="beelineDistanceFactor" value="1.3" />
			<param name="mode" value="walk" />
			<param name="teleportedModeFreespeedFactor" value="null" />
			<param name="teleportedModeSpeed" value="0.8333333333333333" />
		</parameterset>
		<parameterset type="teleportedModeParameters" >
			<param name="beelineDistanceFactor" value="1.3" />
			<param name="mode" value="non_network_walk" />
			<param name="teleportedModeFreespeedFactor" value="null" />
			<param name="teleportedModeSpeed" value="0.8333333333333333" />
		</parameterset>
		<parameterset type="teleportedModeParameters" >
			<param name="beelineDistanceFactor" value="1.3" />
			<param name="mode" value="ride" />
			<param name="teleportedModeFreespeedFactor" value="1.0" />
			<param name="teleportedModeSpeed" value="null" />
		</parameterset>
		<parameterset type="teleportedModeParameters" >
			<param name="beelineDistanceFactor" value="1.3" />
			<param name="mode" value="pt" />
			<param name="teleportedModeFreespeedFactor" value="2.0" />
			<param name="teleportedModeSpeed" value="null" />
		</parameterset>
	</module>
	<module name="scoring" >
		<!-- logit model scale parameter. default: 1.  Has name and default value for historical reasons (see Bryan Raney's phd thesis). -->
		<param name="brainExpBeta" value="2.0" />
		<!-- fraction of iterations at which MSA score averaging is started. The matsim theory department suggests to use this together with switching off choice set innovation (where a similar switch exists), but it has not been tested yet. -->
		<param name="fractionOfIterationsToStartScoreMSA" value="null" />
		<!-- new_score = (1-learningRate)*old_score + learningRate * score_from_mobsim.  learning rates close to zero emulate score averaging, but slow down initial convergence -->
		<param name="learningRate" value="1.0" />
		<param name="pathSizeLogitBeta" value="1.0" />
		<!-- There used to be a plateau between duration=0 and duration=zeroUtilityDuration. This caused durations to evolve to zero once they were below zeroUtilityDuration, causing problems.  Only use this switch if you need to be backwards compatible with some old results.  (changed nov'13) -->
		<param name="usingOldScoringBelowZeroUtilityDuration" value="false" />
		<!-- write a plans file in each iteration directory which contains what each agent actually did, and the score it received. -->
		<param name="writeExperiencedPlans" value="false" />
		<parameterset type="scoringParameters" >
			<param name="earlyDeparture" value="-0.0" />
			<param name="lateArrival" value="-18.0" />
			<param name="marginalUtilityOfMoney" value="0.01" />
			<param name="performing" value="4.321" />
			<param name="subpopulation" value="null" />
			<param name="utilityOfLineSwitch" value="-1.0" />
			<param name="waiting" value="-0.0" />
			<param name="waitingPt" value="-4.0" />
			<parameterset type="activityParams" >
				<param name="activityType" value="dummy" />
				<param name="closingTime" value="undefined" />
				<param name="earliestEndTime" value="undefined" />
				<param name="latestStartTime" value="undefined" />
				<param name="minimalDuration" value="undefined" />
				<param name="openingTime" value="undefined" />
				<param name="priority" value="1.0" />
				<param name="scoringThisActivityAtAll" value="true" />
				<!-- typical duration of activity.  needs to be defined and non-zero.  in sec. -->
				<param name="typicalDuration" value="02:00:00" />
				<!-- method to compute score at typical duration.  Options: | uniform | relative | Use uniform for backwards compatibility (all activities same score; higher proba to drop long acts). -->
				<param name="typicalDurationScoreComputation" value="relative" />
			</parameterset>
			<parameterset type="activityParams" >
				<param name="activityType" value="car interaction" />
				<param name="closingTime" value="undefined" />
				<param name="earliestEndTime" value="undefined" />
				<param name="latestStartTime" value="undefined" />
				<param name="minimalDuration" value="undefined" />
				<param name="openingTime" value="undefined" />
				<param name="priority" value="1.0" />
				<param name="scoringThisActivityAtAll" value="false" />
				<param name="typicalDuration" value="undefined" />
				<param name="typicalDurationScoreComputation" value="relative" />
			</parameterset>
			<parameterset type="activityParams" >
				<param name="activityType" value="pt interaction" />
				<param name="closingTime" value="undefined" />
				<param name="earliestEndTime" value="undefined" />
				<param name="latestStartTime" value="undefined" />
				<param name="minimalDuration" value="undefined" />
				<param name="openingTime" value="undefined" />
				<param name="priority" value="1.0" />
				<param name="scoringThisActivityAtAll" value="false" />
				<param name="typicalDuration" value="undefined" />
				<param name="typicalDurationScoreComputation" value="relative" />
			</parameterset>
			<parameterset type="activityParams" >
				<param name="activityType" value="bike interaction" />
				<param name="closingTime" value="undefined" />
				<param name="earliestEndTime" value="undefined" />
				<param name="latestStartTime" value="undefined" />
				<param name="minimalDuration" value="undefined" />
				<param name="openingTime" value="undefined" />
				<param name="priority" value="1.0" />
				<param name="scoringThisActivityAtAll" value="false" />
				<param name="typicalDuration" value="undefined" />
				<param name="typicalDurationScoreComputation" value="relative" />
			</parameterset>
			<parameterset type="activityParams" >
				<param name="activityType" value="drt interaction" />
				<param name="closingTime" value="undefined" />
				<param name="earliestEndTime" value="undefined" />
				<param name="latestStartTime" value="undefined" />
				<param name="minimalDuration" value="undefined" />
				<param name="openingTime" value="undefined" />
				<param name="priority" value="1.0" />
				<param name="scoringThisActivityAtAll" value="false" />
				<param name="typicalDuration" value="undefined" />
				<param name="typicalDurationScoreComputation" value="relative" />
			</parameterset>
			<parameterset type="activityParams" >
				<param name="activityType" value="taxi interaction" />
				<param name="closingTime" value="undefined" />
				<param name="earliestEndTime" value="undefined" />
				<param name="latestStartTime" value="undefined" />
				<param name="minimalDuration" value="undefined" />
				<param name="openingTime" value="undefined" />
				<param name="priority" value="1.0" />
				<param name="scoringThisActivityAtAll" value="false" />
				<param name="typicalDuration" value="undefined" />
				<param name="typicalDurationScoreComputation" value="relative" />
			</parameterset>
			<parameterset type="activityParams" >
				<param name="activityType" value="other interaction" />
				<param name="closingTime" value="undefined" />
				<param name="earliestEndTime" value="undefined" />
				<param name="latestStartTime" value="undefined" />
				<param name="minimalDuration" value="undefined" />
				<param name="openingTime" value="undefined" />
				<param name="priority" value="1.0" />
				<param name="scoringThisActivityAtAll" value="false" />
				<param name="typicalDuration" value="undefined" />
				<param name="typicalDurationScoreComputation" value="relative" />
			</parameterset>
			<parameterset type="activityParams" >
				<param name="activityType" value="walk interaction" />
				<param name="closingTime" value="undefined" />
				<param name="earliestEndTime" value="undefined" />
				<param name="latestStartTime" value="undefined" />
				<param name="minimalDuration" value="undefined" />
				<param name="openingTime" value="undefined" />
				<param name="priority" value="1.0" />
				<param name="scoringThisActivityAtAll" value="false" />
				<param name="typicalDuration" value="undefined" />
				<param name="typicalDurationScoreComputation" value="relative" />
			</parameterset>
			<parameterset type="activityParams" >
				<param name="activityType" value="home" />
				<param name="closingTime" value="undefined" />
				<param name="earliestEndTime" value="undefined" />
				<param name="latestStartTime" value="undefined" />
				<param name="minimalDuration" value="08:00:00" />
				<param name="openingTime" value="undefined" />
				<param name="priority" value="1.0" />
				<param name="scoringThisActivityAtAll" value="true" />
				<param name="typicalDuration" value="12:00:00" />
				<param name="typicalDurationScoreComputation" value="relative" />
			</parameterset>
			<parameterset type="activityParams" >
				<param name="activityType" value="work" />
				<param name="closingTime" value="18:00:00" />
				<param name="earliestEndTime" value="undefined" />
				<param name="latestStartTime" value="09:00:00" />
				<param name="minimalDuration" value="06:00:00" />
				<param name="openingTime" value="07:00:00" />
				<param name="priority" value="1.0" />
				<param name="scoringThisActivityAtAll" value="true" />
				<param name="typicalDuration" value="08:00:00" />
				<param name="typicalDurationScoreComputation" value="relative" />
			</parameterset>
			<parameterset type="activityParams" >
				<param name="activityType" value="ride interaction" />
				<param name="closingTime" value="undefined" />
				<param name="earliestEndTime" value="undefined" />
				<param name="latestStartTime" value="undefined" />
				<param name="minimalDuration" value="undefined" />
				<param name="openingTime" value="undefined" />
				<param name="priority" value="1.0" />
				<param name="scoringThisActivityAtAll" value="false" />
				<param name="typicalDuration" value="undefined" />
				<param name="typicalDurationScoreComputation" value="relative" />
			</parameterset>
			<parameterset type="modeParams" >
				<!-- [utils] alternative-specific constant.  Normally per trip, but that is probably buggy for multi-leg trips. -->
				<param name="constant" value="0.0" />
				<!-- [unit_of_money/day] Fixed cost of mode, per day. -->
				<param name="dailyMonetaryConstant" value="1.0" />
				<!-- [utils] daily utility constant. default=0 to be backwards compatible -->
				<param name="dailyUtilityConstant" value="0.0" />
				<!-- [utils/m] utility of traveling (e.g. walking or driving) per m, normally negative.  this is on top of the time (dis)utility. -->
				<param name="marginalUtilityOfDistance_util_m" value="-0.02" />
				<!-- [utils/hr] additional marginal utility of traveling.  normally negative.  this comes on top of the opportunity cost of time -->
				<param name="marginalUtilityOfTraveling_util_hr" value="-6.0" />
				<param name="mode" value="car" />
				<!-- [unit_of_money/m] conversion of distance into money. Normally negative. -->
				<param name="monetaryDistanceRate" value="-1.0E-4" />
			</parameterset>
			<parameterset type="modeParams" >
				<param name="constant" value="0.0" />
				<param name="dailyMonetaryConstant" value="0.0" />
				<param name="dailyUtilityConstant" value="0.0" />
				<param name="marginalUtilityOfDistance_util_m" value="-0.05" />
				<param name="marginalUtilityOfTraveling_util_hr" value="-6.0" />
				<param name="mode" value="walk" />
				<param name="monetaryDistanceRate" value="-0.005" />
			</parameterset>
			<parameterset type="modeParams" >
				<param name="constant" value="0.0" />
				<param name="dailyMonetaryConstant" value="0.0" />
				<param name="dailyUtilityConstant" value="0.0" />
				<param name="marginalUtilityOfDistance_util_m" value="-0.025" />
				<param name="marginalUtilityOfTraveling_util_hr" value="-3.0" />
				<param name="mode" value="bike" />
				<param name="monetaryDistanceRate" value="0.0015" />
			</parameterset>
			<parameterset type="modeParams" >
				<param name="constant" value="0.0" />
				<param name="dailyMonetaryConstant" value="2.0" />
				<param name="dailyUtilityConstant" value="0.0" />
				<param name="marginalUtilityOfDistance_util_m" value="-0.0025" />
				<param name="marginalUtilityOfTraveling_util_hr" value="-6.0" />
				<param name="mode" value="ride" />
				<param name="monetaryDistanceRate" value="-1.0E-4" />
			</parameterset>
			<parameterset type="modeParams" >
				<param name="constant" value="0.0" />
				<param name="dailyMonetaryConstant" value="0.0" />
				<param name="dailyUtilityConstant" value="0.0" />
				<param name="marginalUtilityOfDistance_util_m" value="-0.0025" />
				<param name="marginalUtilityOfTraveling_util_hr" value="-4.0" />
				<param name="mode" value="pt" />
				<param name="monetaryDistanceRate" value="-1.0E-4" />
			</parameterset>
			<parameterset type="modeParams" >
				<param name="constant" value="0.0" />
				<param name="dailyMonetaryConstant" value="1.0" />
				<param name="dailyUtilityConstant" value="0.0" />
				<param name="marginalUtilityOfDistance_util_m" value="-0.02" />
				<param name="marginalUtilityOfTraveling_util_hr" value="-2.0" />
				<param name="mode" value="other" />
				<param name="monetaryDistanceRate" value="-1.0E-4" />
			</parameterset>
		</parameterset>
	</module>
	<module name="subtourModeChoice" >
		<!-- Only for backwards compatibility.  Defines if only trips from modes list should change mode, or all trips.  Options: fromAllModesToSpecifiedModes fromSpecifiedModesToSpecifiedModes betweenAllAndFewerConstraints  -->
		<param name="behavior" value="fromSpecifiedModesToSpecifiedModes" />
		<!-- Defines the chain-based modes, seperated by commas -->
		<param name="chainBasedModes" value="car,bike" />
		<!-- Defines whether car availability must be considered or not. A agent has no car only if it has no license, or never access to a car -->
		<param name="considerCarAvailability" value="false" />
		<!-- If greater than 0, subtours will also consider coordinates to be at the same location when smaller than set distance. -->
		<param name="coordDistance" value="0.0" />
		<!-- Defines all the modes available, including chain-based modes, seperated by commas -->
		<param name="modes" value="car,pt,bike,walk" />
		<!-- Defines the probability of changing a single trip for a unchained mode instead of subtour. -->
		<param name="probaForRandomSingleTripMode" value="0.0" />
	</module>
	<module name="timeAllocationMutator" >
		<!-- Latest Activity End Time. Default = 24:00:00 -->
		<param name="latestActivityEndTime" value="86400.0" />
		<!-- Mutates times only around the initially defined end times. -->
		<param name="mutateAroundInitialEndTimeOnly" value="false" />
		<!-- Default:true; Defines whether time mutation changes an activity's duration. -->
		<param name="mutationAffectsDuration" value="true" />
		<!-- Default:1800.0; Defines how many seconds a time mutation can maximally shift a time. -->
		<param name="mutationRange" value="1800.0" />
		<!-- Mutation Range Step, default = 1 second -->
		<param name="mutationRangeStep" value="1.0" />
	</module>
	<module name="transit" >
		<!-- The Coordinates Reference System in which the coordinates are expressed in the input file. At import, the coordinates will be converted to the coordinate system defined in "global", and willbe converted back at export. If not specified, no conversion happens. -->
		<param name="inputScheduleCRS" value="null" />
		<param name="insistingOnUsingDeprecatedAttributeFiles" value="false" />
		<!-- The type of transit routing algorithm used, may have the values: [DijkstraBased, SwissRailRaptor] -->
		<param name="routingAlgorithmType" value="SwissRailRaptor" />
		<!-- Optional input file containing additional attributes for transit lines, stored as ObjectAttributes. -->
		<param name="transitLinesAttributesFile" value="null" />
		<!-- Comma-separated list of transportation modes that are handled as transit. Defaults to 'pt'. -->
		<param name="transitModes" value="pt" />
		<!-- Input file containing the transit schedule to be simulated. -->
		<param name="transitScheduleFile" value="null" />
		<!-- Optional input file containing additional attributes for transit stop facilities, stored as ObjectAttributes. -->
		<param name="transitStopsAttributesFile" value="null" />
		<!-- Set this parameter to true if transit should be simulated, false if not. -->
		<param name="useTransit" value="false" />
		<param name="usingTransitInMobsim" value="true" />
		<!-- Input file containing the vehicles used by the departures in the transit schedule. -->
		<param name="vehiclesFile" value="null" />
	</module>
	<module name="transitRouter" >
		<!-- additional time the router allocates when a line switch happens. Can be interpreted as a 'safety' time that agents need to safely transfer from one line to another -->
		<param name="additionalTransferTime" value="0.0" />
		<!-- Factor with which direct walk generalized cost is multiplied before it is compared to the pt generalized cost.  Set to a very high value to reduce direct walk results. -->
		<param name="directWalkFactor" value="1.0" />
		<!-- step size to increase searchRadius if no stops are found -->
		<param name="extensionRadius" value="200.0" />
		<!-- maximum beeline distance between stops that agents could transfer to by walking -->
		<param name="maxBeelineWalkConnectionDistance" value="100.0" />
		<!-- the radius in which stop locations are searched, given a start or target coordinate -->
		<param name="searchRadius" value="1000.0" />
	</module>
	<module name="travelTimeCalculator" >
		<!-- (only for backwards compatibility; only used if separateModes==false && + filterModes==true)  Transport modes that will be respected by the travel time collector. 'car' is default which includes also buses from the pt simulation module. -->
		<param name="analyzedModes" value="car" />
		<param name="calculateLinkToLinkTravelTimes" value="false" />
		<param name="calculateLinkTravelTimes" value="true" />
		<!-- (only for backwards compatiblity; only used if separateModes==false)  Only modes included in analyzedModes are included. -->
		<param name="filterModes" value="false" />
		<!-- The lenght (in sec) of the time period that is splited into time bins; an additional time bin is created to aggregate all travel times collected after maxTime -->
		<param name="maxTime" value="108000" />
		<!-- (only for backwards compatibility) If false, link travel times are measured and aggregated over all vehicles using the link. -->
		<param name="separateModes" value="true" />
		<!-- How to deal with congested time bins that have no link entry events. `optimistic' assumes free speed (too optimistic); 'experimental_LastMile' is experimental and probably too pessimistic. -->
		<param name="travelTimeAggregator" value="optimistic" />
		<!-- The size of the time bin (in sec) into which the link travel times are aggregated for the router -->
		<param name="travelTimeBinSize" value="900.0" />
		<!-- How to deal with link entry times at different positions during the time bin. Currently supported: average, linearinterpolation -->
		<param name="travelTimeGetter" value="average" />
	</module>
	<module name="vehicles" >
		<param name="vehiclesFile" value="null" />
	</module>
	<module name="vspExperimental" >
		<!-- (do not use except of you have to) There was a problem with pt interaction scoring.  Some people solved it by overwriting the parameters of the pt interaction activity type.  Doing this now throws an Exception.  If you still insist on doing this, set the following to true. -->
		<param name="isAbleToOverwritePtInteractionParams" value="false" />
		<param name="isGeneratingBoardingDeniedEvent" value="false" />
		<!-- if an approximation of the opportunity cost of time is included into the radius calculation for location choice.`true' will be faster, but it is an approximation.  Default is `true'; `false' is available for backwards compatibility. -->
		<param name="isUsingOpportunityCostOfTimeForLocationChoice" value="true" />
		<param name="logitScaleParamForPlansRemoval" value="1.0" />
		<!-- Options: | ignore | info | warn | abort | .  When violating VSP defaults, this results in nothing, logfile infos, logfile warnings, or aborts.  Members of VSP should use `abort' or talk to kai. -->
		<param name="vspDefaultsCheckingLevel" value="ignore" />
		<!-- if true then writes output_events in output directory.  default is `false'. Will only work when lastIteration is multiple of events writing interval -->
		<param name="writingOutputEvents" value="true" />
	</module>

</config>

2024-12-19T09:48:30,232  INFO ControlerUtils:84 Complete config dump done.
2024-12-19T09:48:30,232  INFO ControlerUtils:85 Checking consistency of config...
2024-12-19T09:48:30,232  INFO VspConfigConsistencyCheckerImpl:68 NOT running vsp config consistency check because vsp defaults checking level is set to IGNORE
2024-12-19T09:48:30,237  WARN ConfigConsistencyCheckerImpl:167 Using lanes without enabling linktolinkrouting might not lead to expected simulation results
2024-12-19T09:48:30,237  INFO ControlerUtils:87 Checking consistency of config done.
2024-12-19T09:48:30,237  INFO PrepareForSimImpl:128 Network seems to be multimodal. Create car-only network which is handed over to PersonPrepareForSim.
2024-12-19T09:48:30,239  INFO NetworkImpl:165  node # 1
2024-12-19T09:48:30,239  INFO NetworkImpl:165  node # 4
2024-12-19T09:48:30,239  INFO NetworkImpl:165  node # 16
2024-12-19T09:48:30,239  INFO NetworkImpl:165  node # 64
2024-12-19T09:48:30,240  INFO NetworkImpl:165  node # 256
2024-12-19T09:48:30,241  INFO NetworkImpl:165  node # 1024
2024-12-19T09:48:30,242  INFO NetworkImpl:165  node # 4096
2024-12-19T09:48:30,246  INFO NetworkImpl:165  node # 16384
2024-12-19T09:48:30,250  INFO NetworkImpl:161  link # 1
2024-12-19T09:48:30,250  INFO NetworkImpl:161  link # 4
2024-12-19T09:48:30,251  INFO NetworkImpl:161  link # 16
2024-12-19T09:48:30,252  INFO NetworkImpl:161  link # 64
2024-12-19T09:48:30,254  INFO NetworkImpl:161  link # 256
2024-12-19T09:48:30,258  INFO NetworkImpl:161  link # 1024
2024-12-19T09:48:30,268  INFO NetworkImpl:161  link # 4096
2024-12-19T09:48:30,302  INFO NetworkImpl:161  link # 16384
2024-12-19T09:48:30,437  INFO Counter:70 [VehiclesImpl] added vehicle # 1
2024-12-19T09:48:30,437  INFO Counter:70 [VehiclesImpl] added vehicle # 2
2024-12-19T09:48:30,437  INFO Counter:70 [VehiclesImpl] added vehicle # 4
2024-12-19T09:48:30,438  INFO Counter:70 [VehiclesImpl] added vehicle # 8
2024-12-19T09:48:30,438  INFO Counter:70 [VehiclesImpl] added vehicle # 16
2024-12-19T09:48:30,438  INFO Counter:70 [VehiclesImpl] added vehicle # 32
2024-12-19T09:48:30,438  INFO Counter:70 [VehiclesImpl] added vehicle # 64
2024-12-19T09:48:30,439  INFO Counter:70 [VehiclesImpl] added vehicle # 128
2024-12-19T09:48:30,440  INFO Counter:70 [VehiclesImpl] added vehicle # 256
2024-12-19T09:48:30,442  INFO Counter:70 [VehiclesImpl] added vehicle # 512
2024-12-19T09:48:30,444  INFO Counter:70 [VehiclesImpl] added vehicle # 1024
2024-12-19T09:48:30,447  INFO Counter:70 [VehiclesImpl] added vehicle # 2048
2024-12-19T09:48:30,452  INFO Counter:70 [VehiclesImpl] added vehicle # 4096
2024-12-19T09:48:30,460  INFO Counter:70 [VehiclesImpl] added vehicle # 8192
2024-12-19T09:48:30,506  INFO NetworkImpl:165  node # 1
2024-12-19T09:48:30,507  INFO NetworkImpl:165  node # 4
2024-12-19T09:48:30,507  INFO NetworkImpl:165  node # 16
2024-12-19T09:48:30,507  INFO NetworkImpl:165  node # 64
2024-12-19T09:48:30,507  INFO NetworkImpl:165  node # 256
2024-12-19T09:48:30,507  INFO NetworkImpl:165  node # 1024
2024-12-19T09:48:30,508  INFO NetworkImpl:165  node # 4096
2024-12-19T09:48:30,509  INFO NetworkImpl:165  node # 16384
2024-12-19T09:48:30,511  INFO NetworkImpl:161  link # 1
2024-12-19T09:48:30,511  INFO NetworkImpl:161  link # 4
2024-12-19T09:48:30,511  INFO NetworkImpl:161  link # 16
2024-12-19T09:48:30,511  INFO NetworkImpl:161  link # 64
2024-12-19T09:48:30,512  INFO NetworkImpl:161  link # 256
2024-12-19T09:48:30,513  INFO NetworkImpl:161  link # 1024
2024-12-19T09:48:30,516  INFO NetworkImpl:161  link # 4096
2024-12-19T09:48:30,532  INFO NetworkImpl:161  link # 16384
2024-12-19T09:48:30,623  INFO RandomizingTimeDistanceTravelDisutilityFactory:86  sigma: 3.0; resulting normalization: 0.011108996538242306
2024-12-19T09:48:30,652  INFO RandomizingTimeDistanceTravelDisutilityFactory:86  sigma: 3.0; resulting normalization: 0.011108996538242306
2024-12-19T09:48:30,677  INFO NetworkImpl:419 building QuadTree for nodes: xrange(540428.3306076776,560059.3435176038); yrange(4154892.814417933,4198158.509710974)
2024-12-19T09:48:30,747  INFO NetworkImpl:428 Building QuadTree took 0.081 seconds.
2024-12-19T09:48:30,786  INFO Counter:70 [PersonPrepareForSim] handled person # 1
2024-12-19T09:48:30,803  INFO Counter:70 [PersonPrepareForSim] handled person # 2
2024-12-19T09:48:30,815  INFO Counter:70 [PersonPrepareForSim] handled person # 4
2024-12-19T09:48:30,843  INFO Counter:70 [PersonPrepareForSim] handled person # 8
2024-12-19T09:48:31,048  INFO Counter:70 [PersonPrepareForSim] handled person # 16
2024-12-19T09:48:31,168  INFO Counter:70 [PersonPrepareForSim] handled person # 32
2024-12-19T09:48:31,543  INFO Counter:70 [PersonPrepareForSim] handled person # 64
2024-12-19T09:48:32,074  INFO Counter:70 [PersonPrepareForSim] handled person # 128
2024-12-19T09:48:33,320  INFO Counter:70 [PersonPrepareForSim] handled person # 256
2024-12-19T09:48:35,555  INFO Counter:70 [PersonPrepareForSim] handled person # 512
2024-12-19T09:48:39,021  INFO Counter:70 [PersonPrepareForSim] handled person # 1024
2024-12-19T09:48:46,581  INFO Counter:70 [PersonPrepareForSim] handled person # 2048
2024-12-19T09:49:02,416  INFO Counter:70 [PersonPrepareForSim] handled person # 4096
2024-12-19T09:49:30,087  INFO MemoryObserver:42 used RAM: 380 MB  free: 371 MB  total: 752 MB
2024-12-19T09:49:47,359  INFO Counter:70 [PersonPrepareForSim] handled person # 8192
2024-12-19T09:49:52,515  INFO Counter:75 [PersonPrepareForSim] handled person # 8744
2024-12-19T09:49:52,529  INFO AbstractController:136 ###################################################
2024-12-19T09:49:52,529  INFO AbstractController:137 ### ITERATION 0 BEGINS
2024-12-19T09:49:52,530  INFO ControlerListenerManagerImpl:156 calling notifyIterationStarts on org.matsim.analysis.LegHistogramListener with priority 0.0
2024-12-19T09:49:52,530  INFO ControlerListenerManagerImpl:156 calling notifyIterationStarts on org.matsim.analysis.LinkStatsControlerListener with priority 0.0
2024-12-19T09:49:52,530  INFO ControlerListenerManagerImpl:156 calling notifyIterationStarts on org.matsim.core.replanning.ReplanningContextImpl with priority 0.0
2024-12-19T09:49:52,530  INFO ControlerListenerManagerImpl:156 calling notifyIterationStarts on org.matsim.core.scoring.ScoringFunctionsForPopulation$$Lambda$242/0x00007fefd8352e70 with priority 0.0
2024-12-19T09:49:52,560  INFO ControlerListenerManagerImpl:156 calling notifyIterationStarts on org.matsim.core.scoring.ExperiencedPlansServiceImpl$1 with priority 0.0
2024-12-19T09:49:52,562  INFO ControlerListenerManagerImpl:159 [it.0] all ControlerIterationStartsListeners called.
2024-12-19T09:49:52,563  INFO ControlerListenerManagerImpl:242 calling notifyBeforeMobsim on org.matsim.core.controler.corelisteners.EventsHandlingImpl with priority 0.0
2024-12-19T09:49:52,563  INFO EventsManagerImpl:168 resetting Event-Handlers
2024-12-19T09:49:52,563  INFO EventsManagerImpl:175   org.matsim.core.trafficmonitoring.TravelTimeCalculator
2024-12-19T09:49:52,579  INFO EventsManagerImpl:175   org.matsim.analysis.VolumesAnalyzer
2024-12-19T09:49:52,580  INFO EventsManagerImpl:175   org.matsim.core.scoring.ScoringFunctionsForPopulation
2024-12-19T09:49:52,580  INFO EventsManagerImpl:175   org.matsim.analysis.LegHistogram
2024-12-19T09:49:52,580  INFO EventsManagerImpl:175   org.matsim.analysis.CalcLegTimes
2024-12-19T09:49:52,582  INFO EventsManagerImpl:138 adding Event-Handler: org.matsim.core.events.algorithms.EventWriterXML
2024-12-19T09:49:52,582  INFO EventsManagerImpl:144   org.matsim.core.events.algorithms.EventWriter
2024-12-19T09:49:52,582  INFO EventsManagerImpl:144   org.matsim.core.events.handler.BasicEventHandler
2024-12-19T09:49:52,582  INFO EventsManagerImpl:205     > org.matsim.api.core.v01.events.Event
2024-12-19T09:49:52,583  INFO EventsManagerImpl:154 
2024-12-19T09:49:52,583  INFO EventsManagerImpl:138 adding Event-Handler: org.matsim.core.events.algorithms.EventWriterXML
2024-12-19T09:49:52,583  INFO EventsManagerImpl:144   org.matsim.core.events.algorithms.EventWriter
2024-12-19T09:49:52,583  INFO EventsManagerImpl:144   org.matsim.core.events.handler.BasicEventHandler
2024-12-19T09:49:52,583  INFO EventsManagerImpl:205     > org.matsim.api.core.v01.events.Event
2024-12-19T09:49:52,583  INFO EventsManagerImpl:154 
2024-12-19T09:49:52,583  INFO ControlerListenerManagerImpl:242 calling notifyBeforeMobsim on org.matsim.core.controler.corelisteners.PlansDumpingImpl with priority 0.0
2024-12-19T09:49:52,583  INFO PlansDumpingImpl:77 dumping plans...
2024-12-19T09:49:52,604  INFO Counter:70 [PopulationWriter] dumped person # 1
2024-12-19T09:49:52,605  INFO Counter:70 [PopulationWriter] dumped person # 2
2024-12-19T09:49:52,605  INFO Counter:70 [PopulationWriter] dumped person # 4
2024-12-19T09:49:52,605  INFO Counter:70 [PopulationWriter] dumped person # 8
2024-12-19T09:49:52,605  INFO Counter:70 [PopulationWriter] dumped person # 16
2024-12-19T09:49:52,605  INFO Counter:70 [PopulationWriter] dumped person # 32
2024-12-19T09:49:52,605  INFO Counter:70 [PopulationWriter] dumped person # 64
2024-12-19T09:49:52,605  INFO Counter:70 [PopulationWriter] dumped person # 128
2024-12-19T09:49:52,606  INFO Counter:70 [PopulationWriter] dumped person # 256
2024-12-19T09:49:52,606  INFO Counter:70 [PopulationWriter] dumped person # 512
2024-12-19T09:49:52,613  INFO Counter:70 [ParallelPopulationWriterV6] dumped person # 1
2024-12-19T09:49:52,613  INFO Counter:70 [ParallelPopulationWriterV6] dumped person # 2
2024-12-19T09:49:52,614  INFO Counter:70 [ParallelPopulationWriterV6] dumped person # 4
2024-12-19T09:49:52,615  INFO Counter:70 [ParallelPopulationWriterV6] dumped person # 8
2024-12-19T09:49:52,616  INFO Counter:70 [ParallelPopulationWriterV6] dumped person # 16
2024-12-19T09:49:52,617  INFO Counter:70 [PopulationWriter] dumped person # 1024
2024-12-19T09:49:52,618  INFO Counter:70 [ParallelPopulationWriterV6] dumped person # 32
2024-12-19T09:49:52,624  INFO Counter:70 [ParallelPopulationWriterV6] dumped person # 64
2024-12-19T09:49:52,634  INFO Counter:70 [ParallelPopulationWriterV6] dumped person # 128
2024-12-19T09:49:52,654  INFO Counter:70 [ParallelPopulationWriterV6] dumped person # 256
2024-12-19T09:49:52,696  INFO Counter:70 [ParallelPopulationWriterV6] dumped person # 512
2024-12-19T09:49:52,765  INFO Counter:70 [ParallelPopulationWriterV6] dumped person # 1024
2024-12-19T09:49:52,768  INFO Counter:70 [PopulationWriter] dumped person # 2048
2024-12-19T09:49:52,898  INFO Counter:70 [ParallelPopulationWriterV6] dumped person # 2048
2024-12-19T09:49:53,008  INFO Counter:70 [PopulationWriter] dumped person # 4096
2024-12-19T09:49:53,124  INFO Counter:70 [ParallelPopulationWriterV6] dumped person # 4096
2024-12-19T09:49:53,504  INFO Counter:70 [PopulationWriter] dumped person # 8192
2024-12-19T09:49:53,628  INFO Counter:70 [ParallelPopulationWriterV6] dumped person # 8192
2024-12-19T09:49:53,688  INFO Counter:75 [ParallelPopulationWriterV6] dumped person # 8744
2024-12-19T09:49:53,689  INFO PopulationWriter:150 Population written to: scenarios/equil/output/run_20241219_094827/ITERS/it.0/0.plans.xml.gz
2024-12-19T09:49:53,690  INFO Counter:75 [PopulationWriter] dumped person # 8744
2024-12-19T09:49:53,690  INFO PlansDumpingImpl:94 finished plans dump.
2024-12-19T09:49:53,690  INFO ControlerListenerManagerImpl:248 calling notifyBeforeMobsim on org.matsim.core.population.VspPlansCleaner with priority 0.0
2024-12-19T09:49:53,705  INFO ControlerListenerManagerImpl:251 [it.0] all ControlerBeforeMobsimListeners called.
2024-12-19T09:49:53,706  INFO PrepareForMobsimImpl:86 Network seems to be multimodal. Create car-only network which is handed over to PersonPrepareForSim.
2024-12-19T09:49:53,706  INFO NetworkImpl:165  node # 1
2024-12-19T09:49:53,706  INFO NetworkImpl:165  node # 4
2024-12-19T09:49:53,706  INFO NetworkImpl:165  node # 16
2024-12-19T09:49:53,706  INFO NetworkImpl:165  node # 64
2024-12-19T09:49:53,706  INFO NetworkImpl:165  node # 256
2024-12-19T09:49:53,706  INFO NetworkImpl:165  node # 1024
2024-12-19T09:49:53,707  INFO NetworkImpl:165  node # 4096
2024-12-19T09:49:53,708  INFO NetworkImpl:165  node # 16384
2024-12-19T09:49:53,708  INFO NetworkImpl:161  link # 1
2024-12-19T09:49:53,708  INFO NetworkImpl:161  link # 4
2024-12-19T09:49:53,709  INFO NetworkImpl:161  link # 16
2024-12-19T09:49:53,709  INFO NetworkImpl:161  link # 64
2024-12-19T09:49:53,709  INFO NetworkImpl:161  link # 256
2024-12-19T09:49:53,710  INFO NetworkImpl:161  link # 1024
2024-12-19T09:49:53,713  INFO NetworkImpl:161  link # 4096
2024-12-19T09:49:53,724  INFO NetworkImpl:161  link # 16384
2024-12-19T09:49:53,775  INFO RandomizingTimeDistanceTravelDisutilityFactory:86  sigma: 3.0; resulting normalization: 0.011108996538242306
2024-12-19T09:49:53,778  INFO RandomizingTimeDistanceTravelDisutilityFactory:86  sigma: 3.0; resulting normalization: 0.011108996538242306
2024-12-19T09:49:53,784  INFO Counter:70 [PersonPrepareForSim] handled person # 1
2024-12-19T09:49:53,784  INFO Counter:70 [PersonPrepareForSim] handled person # 2
2024-12-19T09:49:53,785  INFO Counter:70 [PersonPrepareForSim] handled person # 8
2024-12-19T09:49:53,785  INFO Counter:70 [PersonPrepareForSim] handled person # 4
2024-12-19T09:49:53,785  INFO Counter:70 [PersonPrepareForSim] handled person # 16
2024-12-19T09:49:53,785  INFO Counter:70 [PersonPrepareForSim] handled person # 32
2024-12-19T09:49:53,785  INFO Counter:70 [PersonPrepareForSim] handled person # 64
2024-12-19T09:49:53,785  INFO Counter:70 [PersonPrepareForSim] handled person # 128
2024-12-19T09:49:53,786  INFO Counter:70 [PersonPrepareForSim] handled person # 256
2024-12-19T09:49:53,787  INFO Counter:70 [PersonPrepareForSim] handled person # 512
2024-12-19T09:49:53,788  INFO Counter:70 [PersonPrepareForSim] handled person # 1024
2024-12-19T09:49:53,790  INFO Counter:70 [PersonPrepareForSim] handled person # 2048
2024-12-19T09:49:53,792  INFO Counter:70 [PersonPrepareForSim] handled person # 4096
2024-12-19T09:49:53,797  INFO Counter:70 [PersonPrepareForSim] handled person # 8192
2024-12-19T09:49:53,798  INFO Counter:75 [PersonPrepareForSim] handled person # 8744
2024-12-19T09:49:53,849  INFO MobsimListenerManager:50 calling addQueueSimulationListener
2024-12-19T09:49:53,849  INFO MobsimListenerManager:54   assigned class org.matsim.core.mobsim.framework.listeners.MobsimListener to interface org.matsim.core.mobsim.framework.listeners.MobsimListener
2024-12-19T09:49:53,849  INFO MobsimListenerManager:54   assigned class org.matsim.core.mobsim.framework.listeners.MobsimListener to interface org.matsim.vis.snapshotwriters.SnapshotWriterManager
2024-12-19T09:49:53,849  INFO MobsimListenerManager:54   assigned class org.matsim.core.mobsim.framework.listeners.MobsimListener to interface org.matsim.core.mobsim.framework.listeners.MobsimAfterSimStepListener
2024-12-19T09:49:53,849  INFO MobsimListenerManager:54   assigned class org.matsim.core.mobsim.framework.listeners.MobsimListener to interface org.matsim.core.mobsim.framework.listeners.MobsimInitializedListener
2024-12-19T09:49:53,849  INFO MobsimListenerManager:54   assigned class org.matsim.core.mobsim.framework.listeners.MobsimListener to interface org.matsim.core.mobsim.framework.listeners.MobsimBeforeCleanupListener
2024-12-19T09:49:53,853  INFO QSimProvider:131 Added MobsimEngine class org.matsim.core.mobsim.qsim.ActivityEngineDefaultImpl
2024-12-19T09:49:53,853  INFO QSimProvider:137 Added Activityhandler class org.matsim.core.mobsim.qsim.ActivityEngineDefaultImpl
2024-12-19T09:49:54,007  INFO QSimProvider:143 Added DepartureHandler class org.matsim.core.mobsim.qsim.qnetsimengine.VehicularDepartureHandler
2024-12-19T09:49:54,007  INFO QSimProvider:131 Added MobsimEngine class org.matsim.core.mobsim.qsim.qnetsimengine.QNetsimEngineWithThreadpool
2024-12-19T09:49:54,007  INFO QSimProvider:131 Added MobsimEngine class org.matsim.core.mobsim.qsim.DefaultTeleportationEngine
2024-12-19T09:49:54,007  INFO QSimProvider:143 Added DepartureHandler class org.matsim.core.mobsim.qsim.DefaultTeleportationEngine
2024-12-19T09:49:54,008  INFO QSimProvider:149 Added AgentSource class org.matsim.core.mobsim.qsim.agents.PopulationAgentSource
2024-12-19T09:49:54,008  INFO MobsimListenerManager:50 calling addQueueSimulationListener
2024-12-19T09:49:54,008  INFO MobsimListenerManager:54   assigned class org.matsim.core.mobsim.framework.listeners.MobsimListener to interface org.matsim.core.mobsim.framework.listeners.MobsimBeforeSimStepListener
2024-12-19T09:49:54,008  INFO MobsimListenerManager:54   assigned class org.matsim.core.mobsim.framework.listeners.MobsimListener to interface org.matsim.core.mobsim.framework.listeners.MobsimListener
2024-12-19T09:49:54,008  INFO MobsimListenerManager:54   assigned class org.matsim.core.mobsim.framework.listeners.MobsimListener to interface org.matsim.core.mobsim.qsim.messagequeueengine.MessageQueueEngine
2024-12-19T09:49:54,008  INFO QSimProvider:155 Added MobsimListener class org.matsim.core.mobsim.qsim.messagequeueengine.MessageQueueEngine
2024-12-19T09:49:54,015  INFO PopulationUtils:1247 adding scenario element for allpersons container
2024-12-19T09:49:54,015  INFO PopulationImpl:107  person # 1
2024-12-19T09:49:54,015  INFO PopulationImpl:107  person # 4
2024-12-19T09:49:54,016  INFO PopulationImpl:107  person # 16
2024-12-19T09:49:54,016  INFO PopulationImpl:107  person # 64
2024-12-19T09:49:54,019  INFO PopulationImpl:107  person # 256
2024-12-19T09:49:54,024  INFO PopulationImpl:107  person # 1024
2024-12-19T09:49:54,031  INFO PopulationImpl:107  person # 4096
2024-12-19T09:49:54,042  INFO VehicleUtils:395 adding scenario element for allvehicles container
2024-12-19T09:49:54,043  INFO Counter:70 [VehiclesImpl] added vehicle # 1
2024-12-19T09:49:54,043  INFO Counter:70 [VehiclesImpl] added vehicle # 2
2024-12-19T09:49:54,043  INFO Counter:70 [VehiclesImpl] added vehicle # 4
2024-12-19T09:49:54,043  INFO Counter:70 [VehiclesImpl] added vehicle # 8
2024-12-19T09:49:54,044  INFO Counter:70 [VehiclesImpl] added vehicle # 16
2024-12-19T09:49:54,044  INFO Counter:70 [VehiclesImpl] added vehicle # 32
2024-12-19T09:49:54,044  INFO Counter:70 [VehiclesImpl] added vehicle # 64
2024-12-19T09:49:54,045  INFO Counter:70 [VehiclesImpl] added vehicle # 128
2024-12-19T09:49:54,047  INFO Counter:70 [VehiclesImpl] added vehicle # 256
2024-12-19T09:49:54,050  INFO Counter:70 [VehiclesImpl] added vehicle # 512
2024-12-19T09:49:54,053  INFO Counter:70 [VehiclesImpl] added vehicle # 1024
2024-12-19T09:49:54,055  INFO Counter:70 [VehiclesImpl] added vehicle # 2048
2024-12-19T09:49:54,060  INFO Counter:70 [VehiclesImpl] added vehicle # 4096
2024-12-19T09:49:54,070  INFO Counter:70 [VehiclesImpl] added vehicle # 8192
2024-12-19T09:49:54,117  INFO AbstractQNetsimEngine:426 Assigned 27759 nodes and 64052 links to QSimEngineRunner #0
2024-12-19T09:49:54,134  INFO EventsManagerImpl:115  event # 1
2024-12-19T09:49:54,137  INFO EventsManagerImpl:115  event # 4
2024-12-19T09:49:54,138  INFO EventsManagerImpl:115  event # 16
2024-12-19T09:49:54,139  INFO EventsManagerImpl:115  event # 64
2024-12-19T09:49:54,146  INFO EventsManagerImpl:115  event # 256
2024-12-19T09:49:54,167  INFO EventsManagerImpl:115  event # 1024
2024-12-19T09:49:54,203  INFO EventsManagerImpl:115  event # 4096
2024-12-19T09:49:54,209  INFO AbstractQNetsimEngine:364 SIMULATION (QNetsimEngine) AT 08:00:00 : #links=1170 #nodes=984
2024-12-19T09:49:54,214  INFO QSim:566 SIMULATION (NEW QSim) AT 08:00:00 : #Veh=8744 lost=0 simT=0.0s realT=0s; (s/r): 0.0
2024-12-19T09:49:54,297  INFO EventsManagerImpl:115  event # 16384
2024-12-19T09:49:54,732  INFO EventsManagerImpl:115  event # 65536
2024-12-19T09:49:55,980  INFO EventsManagerImpl:115  event # 262144
2024-12-19T09:49:56,601  INFO AbstractQNetsimEngine:364 SIMULATION (QNetsimEngine) AT 09:00:00 : #links=3508 #nodes=125
2024-12-19T09:49:56,601  INFO QSim:566 SIMULATION (NEW QSim) AT 09:00:00 : #Veh=8744 lost=0 simT=3600.0s realT=2s; (s/r): 1800.0
2024-12-19T09:49:58,358  INFO AbstractQNetsimEngine:364 SIMULATION (QNetsimEngine) AT 10:00:00 : #links=3320 #nodes=105
2024-12-19T09:49:58,358  INFO QSim:566 SIMULATION (NEW QSim) AT 10:00:00 : #Veh=8744 lost=0 simT=7200.0s realT=4s; (s/r): 1800.0
2024-12-19T09:49:59,641  INFO AbstractQNetsimEngine:364 SIMULATION (QNetsimEngine) AT 11:00:00 : #links=2595 #nodes=45
2024-12-19T09:49:59,641  INFO QSim:566 SIMULATION (NEW QSim) AT 11:00:00 : #Veh=8744 lost=0 simT=10800.0s realT=5s; (s/r): 2160.0
2024-12-19T09:49:59,652  INFO EventsManagerImpl:115  event # 1048576
2024-12-19T09:50:00,552  INFO AbstractQNetsimEngine:364 SIMULATION (QNetsimEngine) AT 12:00:00 : #links=1552 #nodes=24
2024-12-19T09:50:00,552  INFO QSim:566 SIMULATION (NEW QSim) AT 12:00:00 : #Veh=8744 lost=0 simT=14400.0s realT=6s; (s/r): 2400.0
2024-12-19T09:50:01,139  INFO AbstractQNetsimEngine:364 SIMULATION (QNetsimEngine) AT 13:00:00 : #links=846 #nodes=12
2024-12-19T09:50:01,139  INFO QSim:566 SIMULATION (NEW QSim) AT 13:00:00 : #Veh=8744 lost=0 simT=18000.0s realT=7s; (s/r): 2571.4285714285716
2024-12-19T09:50:01,527  INFO AbstractQNetsimEngine:364 SIMULATION (QNetsimEngine) AT 14:00:00 : #links=442 #nodes=8
2024-12-19T09:50:01,527  INFO QSim:566 SIMULATION (NEW QSim) AT 14:00:00 : #Veh=8744 lost=0 simT=21600.0s realT=7s; (s/r): 3085.714285714286
2024-12-19T09:50:01,810  INFO AbstractQNetsimEngine:364 SIMULATION (QNetsimEngine) AT 15:00:00 : #links=201 #nodes=0
2024-12-19T09:50:01,810  INFO QSim:566 SIMULATION (NEW QSim) AT 15:00:00 : #Veh=8744 lost=0 simT=25200.0s realT=7s; (s/r): 3600.0
2024-12-19T09:50:02,018  INFO AbstractQNetsimEngine:364 SIMULATION (QNetsimEngine) AT 16:00:00 : #links=101 #nodes=0
2024-12-19T09:50:02,019  INFO QSim:566 SIMULATION (NEW QSim) AT 16:00:00 : #Veh=8744 lost=0 simT=28800.0s realT=8s; (s/r): 3600.0
2024-12-19T09:50:02,256  INFO AbstractQNetsimEngine:364 SIMULATION (QNetsimEngine) AT 17:00:00 : #links=1234 #nodes=994
2024-12-19T09:50:02,256  INFO QSim:566 SIMULATION (NEW QSim) AT 17:00:00 : #Veh=8744 lost=0 simT=32400.0s realT=8s; (s/r): 4050.0
2024-12-19T09:50:02,658 ERROR BasicPlanAgentImpl:187 last activity of person driver agent id car_330.01_329.01_4811 has end time < infty; setting it to infty
2024-12-19T09:50:02,658 ERROR BasicPlanAgentImpl:188  This message given only once.
2024-12-19T09:50:04,064  INFO AbstractQNetsimEngine:364 SIMULATION (QNetsimEngine) AT 18:00:00 : #links=3533 #nodes=117
2024-12-19T09:50:04,065  INFO QSim:566 SIMULATION (NEW QSim) AT 18:00:00 : #Veh=8361 lost=0 simT=36000.0s realT=10s; (s/r): 3600.0
2024-12-19T09:50:05,739  INFO AbstractQNetsimEngine:364 SIMULATION (QNetsimEngine) AT 19:00:00 : #links=3369 #nodes=95
2024-12-19T09:50:05,740  INFO QSim:566 SIMULATION (NEW QSim) AT 19:00:00 : #Veh=6944 lost=0 simT=39600.0s realT=11s; (s/r): 3600.0
2024-12-19T09:50:06,955  INFO AbstractQNetsimEngine:364 SIMULATION (QNetsimEngine) AT 20:00:00 : #links=2634 #nodes=48
2024-12-19T09:50:06,955  INFO QSim:566 SIMULATION (NEW QSim) AT 20:00:00 : #Veh=4645 lost=0 simT=43200.0s realT=13s; (s/r): 3323.076923076923
2024-12-19T09:50:07,831  INFO AbstractQNetsimEngine:364 SIMULATION (QNetsimEngine) AT 21:00:00 : #links=1657 #nodes=26
2024-12-19T09:50:07,831  INFO QSim:566 SIMULATION (NEW QSim) AT 21:00:00 : #Veh=2538 lost=0 simT=46800.0s realT=13s; (s/r): 3600.0
2024-12-19T09:50:08,391  INFO AbstractQNetsimEngine:364 SIMULATION (QNetsimEngine) AT 22:00:00 : #links=919 #nodes=14
2024-12-19T09:50:08,391  INFO QSim:566 SIMULATION (NEW QSim) AT 22:00:00 : #Veh=1313 lost=0 simT=50400.0s realT=14s; (s/r): 3600.0
2024-12-19T09:50:08,824  INFO AbstractQNetsimEngine:364 SIMULATION (QNetsimEngine) AT 23:00:00 : #links=491 #nodes=6
2024-12-19T09:50:08,824  INFO QSim:566 SIMULATION (NEW QSim) AT 23:00:00 : #Veh=693 lost=0 simT=54000.0s realT=14s; (s/r): 3857.1428571428573
2024-12-19T09:50:09,099  INFO AbstractQNetsimEngine:364 SIMULATION (QNetsimEngine) AT 24:00:00 : #links=238 #nodes=1
2024-12-19T09:50:09,099  INFO QSim:566 SIMULATION (NEW QSim) AT 24:00:00 : #Veh=350 lost=0 simT=57600.0s realT=15s; (s/r): 3840.0
2024-12-19T09:50:09,321  INFO AbstractQNetsimEngine:364 SIMULATION (QNetsimEngine) AT 25:00:00 : #links=137 #nodes=0
2024-12-19T09:50:09,321  INFO QSim:566 SIMULATION (NEW QSim) AT 25:00:00 : #Veh=215 lost=0 simT=61200.0s realT=15s; (s/r): 4080.0
2024-12-19T09:50:09,501  INFO AbstractQNetsimEngine:364 SIMULATION (QNetsimEngine) AT 26:00:00 : #links=105 #nodes=1
2024-12-19T09:50:09,501  INFO QSim:566 SIMULATION (NEW QSim) AT 26:00:00 : #Veh=148 lost=0 simT=64800.0s realT=15s; (s/r): 4320.0
2024-12-19T09:50:09,690  INFO AbstractQNetsimEngine:364 SIMULATION (QNetsimEngine) AT 27:00:00 : #links=90 #nodes=1
2024-12-19T09:50:09,690  INFO QSim:566 SIMULATION (NEW QSim) AT 27:00:00 : #Veh=106 lost=0 simT=68400.0s realT=15s; (s/r): 4560.0
2024-12-19T09:50:09,865  INFO AbstractQNetsimEngine:364 SIMULATION (QNetsimEngine) AT 28:00:00 : #links=60 #nodes=1
2024-12-19T09:50:09,865  INFO QSim:566 SIMULATION (NEW QSim) AT 28:00:00 : #Veh=65 lost=0 simT=72000.0s realT=16s; (s/r): 4500.0
2024-12-19T09:50:10,029  INFO AbstractQNetsimEngine:364 SIMULATION (QNetsimEngine) AT 29:00:00 : #links=28 #nodes=1
2024-12-19T09:50:10,029  INFO QSim:566 SIMULATION (NEW QSim) AT 29:00:00 : #Veh=28 lost=0 simT=75600.0s realT=16s; (s/r): 4725.0
2024-12-19T09:50:10,173  INFO AbstractQNetsimEngine:364 SIMULATION (QNetsimEngine) AT 30:00:00 : #links=8 #nodes=0
2024-12-19T09:50:10,173  INFO QSim:566 SIMULATION (NEW QSim) AT 30:00:00 : #Veh=8 lost=0 simT=79200.0s realT=16s; (s/r): 4950.0
2024-12-19T09:50:10,227  INFO Gbl:196 Thread performance: Thread=class org.matsim.core.events.SimStepParallelEventsManagerImpl$ProcessEventsRunnable0  cpu-time=12.117226945sec
2024-12-19T09:50:10,227  INFO AbstractController$9:237 ### ITERATION 0 fires after mobsim event
2024-12-19T09:50:10,228  INFO ControlerListenerManagerImpl:269 calling notifyAfterMobsim on org.matsim.analysis.LegTimesControlerListener with priority 0.0
2024-12-19T09:50:10,233  INFO LegTimesControlerListener:51 [0] average trip (probably: leg) duration is: 12170 seconds = 03:22:50
2024-12-19T09:50:10,233  INFO ControlerListenerManagerImpl:269 calling notifyAfterMobsim on org.matsim.core.events.MobsimScopeEventHandling with priority 0.0
2024-12-19T09:50:10,234  INFO ControlerListenerManagerImpl:269 calling notifyAfterMobsim on org.matsim.core.scoring.EventsToActivities$1 with priority 0.0
2024-12-19T09:50:10,246  INFO ControlerListenerManagerImpl:272 [it.0] all ControlerAfterMobsimListeners called.
2024-12-19T09:50:10,247  INFO AbstractController$4:162 ### ITERATION 0 fires scoring event
2024-12-19T09:50:10,248  INFO ControlerListenerManagerImpl:197 calling notifyScoring on org.matsim.core.scoring.PlansScoringImpl with priority 0.0
2024-12-19T09:50:10,259  INFO NewScoreAssignerImpl:58 it: 0 msaStart: null
2024-12-19T09:50:10,265  INFO ControlerListenerManagerImpl:209 [it.0] all ControlerScoringListeners called.
2024-12-19T09:50:10,266  INFO AbstractController$5:170 ### ITERATION 0 fires iteration end event
2024-12-19T09:50:10,267  INFO ControlerListenerManagerImpl:172 calling notifyIterationEnds on org.matsim.core.controler.corelisteners.EventsHandlingImpl with priority 0.0
2024-12-19T09:50:10,267  INFO EventsManagerImpl:159 removing Event-Handler: org.matsim.core.events.algorithms.EventWriterXML
2024-12-19T09:50:10,267  INFO EventsManagerImpl:159 removing Event-Handler: org.matsim.core.events.algorithms.EventWriterXML
2024-12-19T09:50:10,268  INFO ControlerListenerManagerImpl:172 calling notifyIterationEnds on org.matsim.core.scoring.PlansScoringImpl with priority 0.0
2024-12-19T09:50:10,273  INFO ControlerListenerManagerImpl:180 calling notifyIterationEnds on org.matsim.counts.CountsControlerListener with priority 0.0
2024-12-19T09:50:10,274  INFO ControlerListenerManagerImpl:180 calling notifyIterationEnds on org.matsim.analysis.ModeStatsControlerListener with priority 0.0
2024-12-19T09:50:10,292  INFO ModeStatsControlerListener:133 Mode shares over all 17488.0 trips found. MainModeIdentifier: class org.matsim.core.router.DefaultAnalysisMainModeIdentifier
2024-12-19T09:50:10,292  INFO ModeStatsControlerListener:140 -- mode share of mode car = 1.0
2024-12-19T09:50:10,293  INFO ControlerListenerManagerImpl:180 calling notifyIterationEnds on org.matsim.analysis.ScoreStatsControlerListener with priority 0.0
2024-12-19T09:50:10,297  INFO ScoreStatsControlerListener:154 -- avg. score of the executed plan of each agent: -3908.465025977471
2024-12-19T09:50:10,298  INFO ScoreStatsControlerListener:155 -- avg. score of the worst plan of each agent: -3908.465025977471
2024-12-19T09:50:10,298  INFO ScoreStatsControlerListener:156 -- avg. of the avg. plan score per agent: -3908.465025977471
2024-12-19T09:50:10,298  INFO ScoreStatsControlerListener:157 -- avg. score of the best plan of each agent: -3908.465025977471
2024-12-19T09:50:10,306  INFO ControlerListenerManagerImpl:180 calling notifyIterationEnds on org.matsim.analysis.IterationTravelStatsControlerListener with priority 0.0
2024-12-19T09:50:10,340  INFO TravelDistanceStats:115 -- average leg distance per plan (executed plans only): 97390.41407167855 meters
2024-12-19T09:50:10,341  INFO TravelDistanceStats:116 average leg distance per Person (executed plans only): 194691.72437933908 meters (statistic on all 17480 legs which have a finite distance)
2024-12-19T09:50:10,341  INFO TravelDistanceStats:117 -- average trip distance per plan (executed plans only): 97390.41407167855 meters
2024-12-19T09:50:10,341  INFO TravelDistanceStats:118 average trip distance per Person (executed plans only): 194691.72437933908 meters (statistic on all 17480 trips which have a finite distance)
2024-12-19T09:50:10,341  INFO TravelDistanceStats:119 (TravelDistanceStats takes an average over all legs where the simulation reports travelled (network) distances
2024-12-19T09:50:10,341  INFO TravelDistanceStats:120 (and teleported legs whose route contains a distance.)
2024-12-19T09:50:10,953  INFO ActivityWriter:39 Writing all Activities to activitiescsv
2024-12-19T09:50:11,168  INFO ActivityWriter:59 ...done
2024-12-19T09:50:11,168  INFO ControlerListenerManagerImpl:180 calling notifyIterationEnds on org.matsim.analysis.LegHistogramListener with priority 0.0
2024-12-19T09:50:11,174  INFO LegHistogramListener:73 number of legs:	17488	100%
2024-12-19T09:50:11,176  INFO LegHistogramListener:80 number of car legs:	17488	100.0%
2024-12-19T09:50:11,357  INFO ControlerListenerManagerImpl:180 calling notifyIterationEnds on org.matsim.analysis.LinkStatsControlerListener with priority 0.0
2024-12-19T09:50:11,358  INFO ControlerListenerManagerImpl:184 [it.0] all ControlerIterationEndsListeners called.
2024-12-19T09:50:11,444  INFO AbstractController:184 ### ITERATION 0 ENDS
2024-12-19T09:50:11,444  INFO AbstractController:185 ###################################################
2024-12-19T09:50:11,444  INFO AbstractController:136 ###################################################
2024-12-19T09:50:11,444  INFO AbstractController:137 ### ITERATION 1 BEGINS
2024-12-19T09:50:11,444  INFO ControlerListenerManagerImpl:156 calling notifyIterationStarts on org.matsim.analysis.LegHistogramListener with priority 0.0
2024-12-19T09:50:11,444  INFO ControlerListenerManagerImpl:156 calling notifyIterationStarts on org.matsim.analysis.LinkStatsControlerListener with priority 0.0
2024-12-19T09:50:11,444  INFO ControlerListenerManagerImpl:156 calling notifyIterationStarts on org.matsim.core.replanning.ReplanningContextImpl with priority 0.0
2024-12-19T09:50:11,444  INFO ControlerListenerManagerImpl:156 calling notifyIterationStarts on org.matsim.core.scoring.ScoringFunctionsForPopulation$$Lambda$242/0x00007fefd8352e70 with priority 0.0
2024-12-19T09:50:11,459  INFO ControlerListenerManagerImpl:156 calling notifyIterationStarts on org.matsim.core.scoring.ExperiencedPlansServiceImpl$1 with priority 0.0
2024-12-19T09:50:11,461  INFO ControlerListenerManagerImpl:159 [it.1] all ControlerIterationStartsListeners called.
2024-12-19T09:50:11,463  INFO ControlerListenerManagerImpl:221 calling notifyReplanning on org.matsim.core.controler.corelisteners.PlansReplanningImpl with priority 0.0
2024-12-19T09:50:11,463  INFO RandomizingTimeDistanceTravelDisutilityFactory:86  sigma: 3.0; resulting normalization: 0.011108996538242306
2024-12-19T09:50:11,464  INFO RandomizingTimeDistanceTravelDisutilityFactory:86  sigma: 3.0; resulting normalization: 0.011108996538242306
2024-12-19T09:50:11,500  INFO GenericPlanStrategyImpl:135 Plan-Strategy finished, 7168 plans handled. Strategy: BestPlanSelector
2024-12-19T09:50:11,501  INFO AbstractMultithreadedModule:142 [PlanRouter] starting 2 threads, handling 745 plans
2024-12-19T09:50:11,553  INFO Counter:70 [PlanRouter] handled plan # 1
2024-12-19T09:50:11,560  INFO Counter:70 [PlanRouter] handled plan # 2
2024-12-19T09:50:11,573  INFO Counter:70 [PlanRouter] handled plan # 4
2024-12-19T09:50:11,631  INFO Counter:70 [PlanRouter] handled plan # 8
2024-12-19T09:50:11,696  INFO Counter:70 [PlanRouter] handled plan # 16
2024-12-19T09:50:11,847  INFO Counter:70 [PlanRouter] handled plan # 32
2024-12-19T09:50:12,018  INFO Counter:70 [PlanRouter] handled plan # 64
2024-12-19T09:50:12,608  INFO Counter:70 [PlanRouter] handled plan # 128
2024-12-19T09:50:13,490  INFO Counter:70 [PlanRouter] handled plan # 256
2024-12-19T09:50:16,081  INFO Counter:70 [PlanRouter] handled plan # 512
2024-12-19T09:50:18,973  INFO AbstractMultithreadedModule:157 [PlanRouter] all 2 threads finished.
2024-12-19T09:50:18,973  INFO GenericPlanStrategyImpl:135 Plan-Strategy finished, 745 plans handled. Strategy: RandomPlanSelector_ReRoute
2024-12-19T09:50:18,973  INFO AbstractMultithreadedModule:142 [MutateActivityTimeAllocation] starting 2 threads, handling 831 plans
2024-12-19T09:50:18,973  INFO Counter:70 [MutateActivityTimeAllocation] handled plan # 2
2024-12-19T09:50:18,973  INFO Counter:70 [MutateActivityTimeAllocation] handled plan # 1
2024-12-19T09:50:18,974  INFO Counter:70 [MutateActivityTimeAllocation] handled plan # 4
2024-12-19T09:50:18,974  INFO Counter:70 [MutateActivityTimeAllocation] handled plan # 8
2024-12-19T09:50:18,974  INFO Counter:70 [MutateActivityTimeAllocation] handled plan # 16
2024-12-19T09:50:18,974  INFO Counter:70 [MutateActivityTimeAllocation] handled plan # 32
2024-12-19T09:50:18,974  INFO Counter:70 [MutateActivityTimeAllocation] handled plan # 64
2024-12-19T09:50:18,974  INFO Counter:70 [MutateActivityTimeAllocation] handled plan # 128
2024-12-19T09:50:18,975  INFO Counter:70 [MutateActivityTimeAllocation] handled plan # 256
2024-12-19T09:50:18,976  INFO Counter:70 [MutateActivityTimeAllocation] handled plan # 512
[...]
2024-12-19T09:50:20,284  INFO MobsimListenerManager:54   assigned class org.matsim.core.mobsim.framework.listeners.MobsimListener to interface org.matsim.core.mobsim.qsim.messagequeueengine.MessageQueueEngine
2024-12-19T09:50:20,284  INFO QSimProvider:155 Added MobsimListener class org.matsim.core.mobsim.qsim.messagequeueengine.MessageQueueEngine
2024-12-19T09:50:20,336  INFO AbstractQNetsimEngine:426 Assigned 27759 nodes and 64052 links to QSimEngineRunner #0
2024-12-19T09:50:20,346  INFO AbstractQNetsimEngine:364 SIMULATION (QNetsimEngine) AT 07:30:02 : #links=1 #nodes=1
2024-12-19T09:50:20,347  INFO QSim:566 SIMULATION (NEW QSim) AT 07:30:02 : #Veh=8744 lost=0 simT=0.0s realT=0s; (s/r): 0.0
2024-12-19T09:50:20,525  INFO AbstractQNetsimEngine:364 SIMULATION (QNetsimEngine) AT 08:00:00 : #links=1509 #nodes=977
2024-12-19T09:50:20,525  INFO QSim:566 SIMULATION (NEW QSim) AT 08:00:00 : #Veh=8744 lost=0 simT=1798.0s realT=0s; (s/r): Infinity
2024-12-19T09:50:22,321  INFO AbstractQNetsimEngine:364 SIMULATION (QNetsimEngine) AT 09:00:00 : #links=3636 #nodes=119
2024-12-19T09:50:22,322  INFO QSim:566 SIMULATION (NEW QSim) AT 09:00:00 : #Veh=8744 lost=0 simT=5398.0s realT=2s; (s/r): 2699.0
2024-12-19T09:50:24,068  INFO AbstractQNetsimEngine:364 SIMULATION (QNetsimEngine) AT 10:00:00 : #links=3408 #nodes=90
2024-12-19T09:50:24,068  INFO QSim:566 SIMULATION (NEW QSim) AT 10:00:00 : #Veh=8744 lost=0 simT=8998.0s realT=3s; (s/r): 2999.3333333333335
2024-12-19T09:50:25,272  INFO AbstractQNetsimEngine:364 SIMULATION (QNetsimEngine) AT 11:00:00 : #links=2641 #nodes=54
2024-12-19T09:50:25,272  INFO QSim:566 SIMULATION (NEW QSim) AT 11:00:00 : #Veh=8744 lost=0 simT=12598.0s realT=5s; (s/r): 2519.6
2024-12-19T09:50:26,103  INFO AbstractQNetsimEngine:364 SIMULATION (QNetsimEngine) AT 12:00:00 : #links=1538 #nodes=24
2024-12-19T09:50:26,103  INFO QSim:566 SIMULATION (NEW QSim) AT 12:00:00 : #Veh=8744 lost=0 simT=16198.0s realT=5s; (s/r): 3239.6
2024-12-19T09:50:26,617  INFO AbstractQNetsimEngine:364 SIMULATION (QNetsimEngine) AT 13:00:00 : #links=795 #nodes=6
2024-12-19T09:50:26,618  INFO QSim:566 SIMULATION (NEW QSim) AT 13:00:00 : #Veh=8744 lost=0 simT=19798.0s realT=6s; (s/r): 3299.6666666666665
2024-12-19T09:50:26,947  INFO AbstractQNetsimEngine:364 SIMULATION (QNetsimEngine) AT 14:00:00 : #links=401 #nodes=4
2024-12-19T09:50:26,947  INFO QSim:566 SIMULATION (NEW QSim) AT 14:00:00 : #Veh=8744 lost=0 simT=23398.0s realT=6s; (s/r): 3899.6666666666665
2024-12-19T09:50:27,186  INFO AbstractQNetsimEngine:364 SIMULATION (QNetsimEngine) AT 15:00:00 : #links=184 #nodes=2
2024-12-19T09:50:27,186  INFO QSim:566 SIMULATION (NEW QSim) AT 15:00:00 : #Veh=8744 lost=0 simT=26998.0s realT=6s; (s/r): 4499.666666666667
2024-12-19T09:50:27,376  INFO AbstractQNetsimEngine:364 SIMULATION (QNetsimEngine) AT 16:00:00 : #links=94 #nodes=0
2024-12-19T09:50:27,376  INFO QSim:566 SIMULATION (NEW QSim) AT 16:00:00 : #Veh=8744 lost=0 simT=30598.0s realT=7s; (s/r): 4371.142857142857
2024-12-19T09:50:27,609  INFO AbstractQNetsimEngine:364 SIMULATION (QNetsimEngine) AT 17:00:00 : #links=1581 #nodes=983
2024-12-19T09:50:27,609  INFO QSim:566 SIMULATION (NEW QSim) AT 17:00:00 : #Veh=8743 lost=0 simT=34198.0s realT=7s; (s/r): 4885.428571428572
2024-12-19T09:50:28,833  INFO EventsManagerImpl:115  event # 4194304
2024-12-19T09:50:29,389  INFO AbstractQNetsimEngine:364 SIMULATION (QNetsimEngine) AT 18:00:00 : #links=3642 #nodes=119
2024-12-19T09:50:29,389  INFO QSim:566 SIMULATION (NEW QSim) AT 18:00:00 : #Veh=8348 lost=0 simT=37798.0s realT=9s; (s/r): 4199.777777777777
2024-12-19T09:50:30,087  INFO MemoryObserver:42 used RAM: 749 MB  free: 530 MB  total: 1280 MB
2024-12-19T09:50:30,988  INFO AbstractQNetsimEngine:364 SIMULATION (QNetsimEngine) AT 19:00:00 : #links=3462 #nodes=71
2024-12-19T09:50:30,988  INFO QSim:566 SIMULATION (NEW QSim) AT 19:00:00 : #Veh=6910 lost=0 simT=41398.0s realT=10s; (s/r): 4139.8
2024-12-19T09:50:32,176  INFO AbstractQNetsimEngine:364 SIMULATION (QNetsimEngine) AT 20:00:00 : #links=2689 #nodes=46
2024-12-19T09:50:32,176  INFO QSim:566 SIMULATION (NEW QSim) AT 20:00:00 : #Veh=4560 lost=0 simT=44998.0s realT=11s; (s/r): 4090.7272727272725
2024-12-19T09:50:33,010  INFO AbstractQNetsimEngine:364 SIMULATION (QNetsimEngine) AT 21:00:00 : #links=1636 #nodes=19
2024-12-19T09:50:33,011  INFO QSim:566 SIMULATION (NEW QSim) AT 21:00:00 : #Veh=2415 lost=0 simT=48598.0s realT=12s; (s/r): 4049.8333333333335
2024-12-19T09:50:33,560  INFO AbstractQNetsimEngine:364 SIMULATION (QNetsimEngine) AT 22:00:00 : #links=880 #nodes=12
2024-12-19T09:50:33,560  INFO QSim:566 SIMULATION (NEW QSim) AT 22:00:00 : #Veh=1184 lost=0 simT=52198.0s realT=13s; (s/r): 4015.230769230769
2024-12-19T09:50:33,954  INFO AbstractQNetsimEngine:364 SIMULATION (QNetsimEngine) AT 23:00:00 : #links=449 #nodes=5
2024-12-19T09:50:33,954  INFO QSim:566 SIMULATION (NEW QSim) AT 23:00:00 : #Veh=588 lost=0 simT=55798.0s realT=13s; (s/r): 4292.153846153846
2024-12-19T09:50:34,229  INFO AbstractQNetsimEngine:364 SIMULATION (QNetsimEngine) AT 24:00:00 : #links=210 #nodes=1
2024-12-19T09:50:34,229  INFO QSim:566 SIMULATION (NEW QSim) AT 24:00:00 : #Veh=283 lost=0 simT=59398.0s realT=14s; (s/r): 4242.714285714285
2024-12-19T09:50:34,428  INFO AbstractQNetsimEngine:364 SIMULATION (QNetsimEngine) AT 25:00:00 : #links=127 #nodes=0
2024-12-19T09:50:34,428  INFO QSim:566 SIMULATION (NEW QSim) AT 25:00:00 : #Veh=162 lost=0 simT=62998.0s realT=14s; (s/r): 4499.857142857143
2024-12-19T09:50:34,622  INFO AbstractQNetsimEngine:364 SIMULATION (QNetsimEngine) AT 26:00:00 : #links=90 #nodes=1
2024-12-19T09:50:34,622  INFO QSim:566 SIMULATION (NEW QSim) AT 26:00:00 : #Veh=104 lost=0 simT=66598.0s realT=14s; (s/r): 4757.0
2024-12-19T09:50:34,820  INFO AbstractQNetsimEngine:364 SIMULATION (QNetsimEngine) AT 27:00:00 : #links=58 #nodes=1
2024-12-19T09:50:34,820  INFO QSim:566 SIMULATION (NEW QSim) AT 27:00:00 : #Veh=62 lost=0 simT=70198.0s realT=14s; (s/r): 5014.142857142857
2024-12-19T09:50:34,984  INFO AbstractQNetsimEngine:364 SIMULATION (QNetsimEngine) AT 28:00:00 : #links=22 #nodes=0
2024-12-19T09:50:34,985  INFO QSim:566 SIMULATION (NEW QSim) AT 28:00:00 : #Veh=22 lost=0 simT=73798.0s realT=14s; (s/r): 5271.285714285715
2024-12-19T09:50:35,143  INFO AbstractQNetsimEngine:364 SIMULATION (QNetsimEngine) AT 29:00:00 : #links=8 #nodes=0
2024-12-19T09:50:35,143  INFO QSim:566 SIMULATION (NEW QSim) AT 29:00:00 : #Veh=8 lost=0 simT=77398.0s realT=14s; (s/r): 5528.428571428572
2024-12-19T09:50:35,306  INFO AbstractQNetsimEngine:364 SIMULATION (QNetsimEngine) AT 30:00:00 : #links=1 #nodes=0
2024-12-19T09:50:35,306  INFO QSim:566 SIMULATION (NEW QSim) AT 30:00:00 : #Veh=1 lost=0 simT=80998.0s realT=15s; (s/r): 5399.866666666667
2024-12-19T09:50:35,388  INFO Gbl:196 Thread performance: Thread=class org.matsim.core.events.SimStepParallelEventsManagerImpl$ProcessEventsRunnable0  cpu-time=11.35556786sec
2024-12-19T09:50:35,388  INFO AbstractController$9:237 ### ITERATION 1 fires after mobsim event
2024-12-19T09:50:35,388  INFO ControlerListenerManagerImpl:269 calling notifyAfterMobsim on org.matsim.analysis.LegTimesControlerListener with priority 0.0
2024-12-19T09:50:35,389  INFO LegTimesControlerListener:51 [1] average trip (probably: leg) duration is: 11917 seconds = 03:18:37
2024-12-19T09:50:35,389  INFO ControlerListenerManagerImpl:269 calling notifyAfterMobsim on org.matsim.core.events.MobsimScopeEventHandling with priority 0.0
2024-12-19T09:50:35,389  INFO ControlerListenerManagerImpl:269 calling notifyAfterMobsim on org.matsim.core.scoring.EventsToActivities$1 with priority 0.0
2024-12-19T09:50:35,397  INFO ControlerListenerManagerImpl:272 [it.1] all ControlerAfterMobsimListeners called.
2024-12-19T09:50:35,397  INFO AbstractController$4:162 ### ITERATION 1 fires scoring event
2024-12-19T09:50:35,397  INFO ControlerListenerManagerImpl:197 calling notifyScoring on org.matsim.core.scoring.PlansScoringImpl with priority 0.0
2024-12-19T09:50:35,402  INFO NewScoreAssignerImpl:58 it: 1 msaStart: null
2024-12-19T09:50:35,408  INFO ControlerListenerManagerImpl:209 [it.1] all ControlerScoringListeners called.
2024-12-19T09:50:35,408  INFO AbstractController$5:170 ### ITERATION 1 fires iteration end event
2024-12-19T09:50:35,408  INFO ControlerListenerManagerImpl:172 calling notifyIterationEnds on org.matsim.core.controler.corelisteners.EventsHandlingImpl with priority 0.0
2024-12-19T09:50:35,409  INFO EventsManagerImpl:159 removing Event-Handler: org.matsim.core.events.algorithms.EventWriterXML
2024-12-19T09:50:35,409  INFO EventsManagerImpl:159 removing Event-Handler: org.matsim.core.events.algorithms.EventWriterXML
2024-12-19T09:50:35,409  INFO ControlerListenerManagerImpl:172 calling notifyIterationEnds on org.matsim.core.scoring.PlansScoringImpl with priority 0.0
2024-12-19T09:50:35,413  INFO ControlerListenerManagerImpl:180 calling notifyIterationEnds on org.matsim.counts.CountsControlerListener with priority 0.0
2024-12-19T09:50:35,414  INFO ControlerListenerManagerImpl:180 calling notifyIterationEnds on org.matsim.analysis.ModeStatsControlerListener with priority 0.0
2024-12-19T09:50:35,428  INFO ModeStatsControlerListener:133 Mode shares over all 17488.0 trips found. MainModeIdentifier: class org.matsim.core.router.DefaultAnalysisMainModeIdentifier
2024-12-19T09:50:35,428  INFO ModeStatsControlerListener:140 -- mode share of mode car = 1.0
2024-12-19T09:50:35,498  INFO ControlerListenerManagerImpl:180 calling notifyIterationEnds on org.matsim.analysis.ScoreStatsControlerListener with priority 0.0
2024-12-19T09:50:35,500  INFO ScoreStatsControlerListener:154 -- avg. score of the executed plan of each agent: -3908.212754094013
2024-12-19T09:50:35,500  INFO ScoreStatsControlerListener:155 -- avg. score of the worst plan of each agent: -3923.7048526791027
2024-12-19T09:50:35,501  INFO ScoreStatsControlerListener:156 -- avg. of the avg. plan score per agent: -3908.3905995396076
2024-12-19T09:50:35,501  INFO ScoreStatsControlerListener:157 -- avg. score of the best plan of each agent: -3893.0763464001266
2024-12-19T09:50:35,536  INFO ControlerListenerManagerImpl:180 calling notifyIterationEnds on org.matsim.analysis.IterationTravelStatsControlerListener with priority 0.0
2024-12-19T09:50:35,547  INFO TravelDistanceStats:115 -- average leg distance per plan (executed plans only): 97433.31543538149 meters
2024-12-19T09:50:35,547  INFO TravelDistanceStats:116 average leg distance per Person (executed plans only): 194855.48799388335 meters (statistic on all 17487 legs which have a finite distance)
2024-12-19T09:50:35,547  INFO TravelDistanceStats:117 -- average trip distance per plan (executed plans only): 97433.31543538149 meters
2024-12-19T09:50:35,547  INFO TravelDistanceStats:118 average trip distance per Person (executed plans only): 194855.48799388335 meters (statistic on all 17487 trips which have a finite distance)
2024-12-19T09:50:35,547  INFO TravelDistanceStats:119 (TravelDistanceStats takes an average over all legs where the simulation reports travelled (network) distances
2024-12-19T09:50:35,548  INFO TravelDistanceStats:120 (and teleported legs whose route contains a distance.)
2024-12-19T09:50:36,039  INFO ActivityWriter:39 Writing all Activities to activitiescsv
2024-12-19T09:50:36,218  INFO ActivityWriter:59 ...done
2024-12-19T09:50:36,219  INFO ControlerListenerManagerImpl:180 calling notifyIterationEnds on org.matsim.analysis.LegHistogramListener with priority 0.0
2024-12-19T09:50:36,220  INFO LegHistogramListener:73 number of legs:	17488	100%
2024-12-19T09:50:36,220  INFO LegHistogramListener:80 number of car legs:	17488	100.0%
2024-12-19T09:50:36,320  INFO ControlerListenerManagerImpl:180 calling notifyIterationEnds on org.matsim.analysis.LinkStatsControlerListener with priority 0.0
2024-12-19T09:50:36,320  INFO ControlerListenerManagerImpl:184 [it.1] all ControlerIterationEndsListeners called.
2024-12-19T09:50:36,372  INFO AbstractController:184 ### ITERATION 1 ENDS
2024-12-19T09:50:36,373  INFO AbstractController:185 ###################################################
2024-12-19T09:50:36,373  INFO MatsimRuntimeModifications:80 S H U T D O W N   ---   start shutdown.
2024-12-19T09:50:36,373  INFO ControlerListenerManagerImpl:128 calling notifyShutdown on org.matsim.core.controler.corelisteners.EventsHandlingImpl with priority 0.0
2024-12-19T09:50:36,373  INFO ControlerListenerManagerImpl:128 calling notifyShutdown on org.matsim.core.controler.corelisteners.DumpDataAtEndImpl with priority 0.0
2024-12-19T09:50:36,381  INFO Counter:70 [PopulationWriter] dumped person # 1
2024-12-19T09:50:36,381  INFO Counter:70 [PopulationWriter] dumped person # 2
2024-12-19T09:50:36,382  INFO Counter:70 [PopulationWriter] dumped person # 4
2024-12-19T09:50:36,382  INFO Counter:70 [ParallelPopulationWriterV6] dumped person # 1
2024-12-19T09:50:36,382  INFO Counter:70 [PopulationWriter] dumped person # 8
2024-12-19T09:50:36,382  INFO Counter:70 [ParallelPopulationWriterV6] dumped person # 2
2024-12-19T09:50:36,382  INFO Counter:70 [ParallelPopulationWriterV6] dumped person # 4
2024-12-19T09:50:36,382  INFO Counter:70 [PopulationWriter] dumped person # 16
2024-12-19T09:50:36,383  INFO Counter:70 [PopulationWriter] dumped person # 32
2024-12-19T09:50:36,383  INFO Counter:70 [PopulationWriter] dumped person # 64
2024-12-19T09:50:36,383  INFO Counter:70 [PopulationWriter] dumped person # 128
2024-12-19T09:50:36,383  INFO Counter:70 [PopulationWriter] dumped person # 256
2024-12-19T09:50:36,383  INFO Counter:70 [ParallelPopulationWriterV6] dumped person # 8
2024-12-19T09:50:36,383  INFO Counter:70 [PopulationWriter] dumped person # 512
2024-12-19T09:50:36,384  INFO Counter:70 [ParallelPopulationWriterV6] dumped person # 16
2024-12-19T09:50:36,385  INFO Counter:70 [PopulationWriter] dumped person # 1024
2024-12-19T09:50:36,386  INFO Counter:70 [ParallelPopulationWriterV6] dumped person # 32
2024-12-19T09:50:36,392  INFO Counter:70 [ParallelPopulationWriterV6] dumped person # 64
2024-12-19T09:50:36,400  INFO Counter:70 [ParallelPopulationWriterV6] dumped person # 128
2024-12-19T09:50:36,417  INFO Counter:70 [ParallelPopulationWriterV6] dumped person # 256
2024-12-19T09:50:36,452  INFO Counter:70 [ParallelPopulationWriterV6] dumped person # 512
2024-12-19T09:50:36,510  INFO Counter:70 [ParallelPopulationWriterV6] dumped person # 1024
2024-12-19T09:50:36,512  INFO Counter:70 [PopulationWriter] dumped person # 2048
2024-12-19T09:50:36,622  INFO Counter:70 [ParallelPopulationWriterV6] dumped person # 2048
2024-12-19T09:50:36,734  INFO Counter:70 [PopulationWriter] dumped person # 4096
2024-12-19T09:50:36,855  INFO Counter:70 [ParallelPopulationWriterV6] dumped person # 4096
2024-12-19T09:50:37,249  INFO Counter:70 [PopulationWriter] dumped person # 8192
2024-12-19T09:50:37,380  INFO Counter:70 [ParallelPopulationWriterV6] dumped person # 8192
2024-12-19T09:50:37,445  INFO Counter:75 [ParallelPopulationWriterV6] dumped person # 8744
2024-12-19T09:50:37,446  INFO PopulationWriter:150 Population written to: scenarios/equil/output/run_20241219_094827/output_plans.xml.gz
2024-12-19T09:50:37,446  INFO Counter:75 [PopulationWriter] dumped person # 8744
2024-12-19T09:50:37,447  INFO NetworkWriter:70 Writing network to file: scenarios/equil/output/run_20241219_094827/output_network.xml.gz...
2024-12-19T09:50:38,153  INFO NetworkWriter:73 done.
2024-12-19T09:50:38,160  INFO Config:550 setting context to [file:/home/opc/matsim-example-project/]
2024-12-19T09:50:38,162  INFO Config:550 setting context to [file:/home/opc/matsim-example-project/]
2024-12-19T09:50:38,168  INFO Config:550 setting context to [file:/home/opc/matsim-example-project/]
2024-12-19T09:50:38,170  INFO Config:550 setting context to [file:/home/opc/matsim-example-project/]
2024-12-19T09:50:38,171  INFO Config:550 setting context to [file:/home/opc/matsim-example-project/]
2024-12-19T09:50:38,173  INFO Config:550 setting context to [file:/home/opc/matsim-example-project/]
2024-12-19T09:50:38,174  INFO Config:550 setting context to [file:/home/opc/matsim-example-project/]
2024-12-19T09:50:38,175  INFO Config:550 setting context to [file:/home/opc/matsim-example-project/]
2024-12-19T09:50:38,177  INFO Config:550 setting context to [file:/home/opc/matsim-example-project/]
2024-12-19T09:50:38,178  INFO Config:550 setting context to [file:/home/opc/matsim-example-project/]
2024-12-19T09:50:38,180  INFO Config:550 setting context to [file:/home/opc/matsim-example-project/]
2024-12-19T09:50:38,181  INFO Config:550 setting context to [file:/home/opc/matsim-example-project/]
2024-12-19T09:50:38,182  INFO Config:550 setting context to [file:/home/opc/matsim-example-project/]
2024-12-19T09:50:38,184  INFO Config:550 setting context to [file:/home/opc/matsim-example-project/]
2024-12-19T09:50:38,191  INFO Config:550 setting context to [file:/home/opc/matsim-example-project/]
2024-12-19T09:50:38,193  INFO Config:550 setting context to [file:/home/opc/matsim-example-project/]
2024-12-19T09:50:38,194  INFO Config:550 setting context to [file:/home/opc/matsim-example-project/]
2024-12-19T09:50:38,196  INFO Config:550 setting context to [file:/home/opc/matsim-example-project/]
2024-12-19T09:50:38,197  INFO Config:550 setting context to [file:/home/opc/matsim-example-project/]
2024-12-19T09:50:38,202  INFO Config:550 setting context to [file:/home/opc/matsim-example-project/]
2024-12-19T09:50:38,203  INFO Config:550 setting context to [file:/home/opc/matsim-example-project/]
2024-12-19T09:50:38,204  INFO Config:550 setting context to [file:/home/opc/matsim-example-project/]
2024-12-19T09:50:38,205  INFO Config:550 setting context to [file:/home/opc/matsim-example-project/]
2024-12-19T09:50:38,206  INFO Config:550 setting context to [file:/home/opc/matsim-example-project/]
2024-12-19T09:50:38,207  INFO Config:550 setting context to [file:/home/opc/matsim-example-project/]
2024-12-19T09:50:38,208  INFO Config:550 setting context to [file:/home/opc/matsim-example-project/]
2024-12-19T09:50:38,211  INFO MatsimVehicleWriter:49 about to write vehicles to: scenarios/equil/output/run_20241219_094827/output_vehicles.xml.gz
2024-12-19T09:50:38,211  INFO VehicleWriterV2:64 about to write vehicles to: scenarios/equil/output/run_20241219_094827/output_vehicles.xml.gz
2024-12-19T09:50:38,241  INFO MatsimVehicleWriter:49 about to write vehicles to: scenarios/equil/output/run_20241219_094827/output_allVehicles.xml.gz
2024-12-19T09:50:38,241  INFO VehicleWriterV2:64 about to write vehicles to: scenarios/equil/output/run_20241219_094827/output_allVehicles.xml.gz
2024-12-19T09:50:38,265  INFO HouseholdsWriterV10:66 about to write  households to: scenarios/equil/output/run_20241219_094827/output_households.xml.gz
2024-12-19T09:50:38,265  INFO Counter:75 [HouseholdsWriter] wrote household # 0
2024-12-19T09:50:38,269  INFO CountsWriterV2:45 Write Counts to scenarios/equil/output/run_20241219_094827/output_counts.xml.gz
2024-12-19T09:50:38,292  INFO ControlerListenerManagerImpl:135 calling notifyShutdown on org.matsim.analysis.ScoreStatsControlerListener with priority 0.0
2024-12-19T09:50:38,292  INFO ControlerListenerManagerImpl:135 calling notifyShutdown on org.matsim.analysis.IterationTravelStatsControlerListener with priority 0.0
2024-12-19T09:50:38,292  INFO PersonWriter:36 Writing all Persons to personscsv
2024-12-19T09:50:38,371  INFO PersonWriter:54 ...done
2024-12-19T09:50:38,371  INFO ControlerListenerManagerImpl:135 calling notifyShutdown on org.matsim.analysis.LinkStatsControlerListener with priority 0.0
2024-12-19T09:50:39,254  INFO ControlerListenerManagerImpl:138 all ControlerShutdownListeners called.
2024-12-19T09:50:39,255  INFO MatsimRuntimeModifications:103 S H U T D O W N   ---   shutdown completed.
2024-12-19T09:50:39,255  INFO OutputDirectoryLogging:172 closing the logfile, i.e. messages sent to the logger after this message are not written to the logfile.
